*SPEF "IEEE 1481-1999"
*DESIGN "huffman_decoder"
*DATE "Fri Dec  6 21:03:39 2024"
*VENDOR "SYNOPSYS INC"
*PROGRAM "Synopsys Design Compiler cmos"
*VERSION "T-2022.03-SP3"
*DESIGN_FLOW "SYNTHESIS"
*DIVIDER /
*DELIMITER :
*BUS_DELIMITER []
*T_UNIT 1.0 NS
*C_UNIT 0.0010 PF
*R_UNIT 1000.0 KOHM
*L_UNIT 1.0 HENRY

*PORTS

huff_packet\[949\] I *L 0.000e+00 *S 2.130e-03 3.886e-02 *D NBUFFX4_RVT 
huff_packet\[948\] I *L 0.000e+00 *S 2.130e-03 3.886e-02 *D NBUFFX4_RVT 
huff_packet\[947\] I *L 0.000e+00 *S 2.130e-03 3.886e-02 *D NBUFFX4_RVT 
huff_packet\[946\] I *L 0.000e+00 *S 2.130e-03 3.886e-02 *D NBUFFX4_RVT 
huff_packet\[945\] I *L 0.000e+00 *S 2.130e-03 3.886e-02 *D NBUFFX4_RVT 
huff_packet\[944\] I *L 0.000e+00 *S 1.922e-03 4.102e-02 *D NBUFFX4_RVT 
huff_packet\[943\] I *L 0.000e+00 *S 1.922e-03 4.102e-02 *D NBUFFX4_RVT 
huff_packet\[942\] I *L 0.000e+00 *S 1.922e-03 4.102e-02 *D NBUFFX4_RVT 
huff_packet\[941\] I *L 0.000e+00 *S 1.922e-03 4.102e-02 *D NBUFFX4_RVT 
huff_packet\[940\] I *L 0.000e+00 *S 1.922e-03 4.102e-02 *D NBUFFX4_RVT 
huff_packet\[939\] I *L 0.000e+00 *S 1.922e-03 4.102e-02 *D NBUFFX4_RVT 
huff_packet\[938\] I *L 0.000e+00 *S 1.922e-03 4.102e-02 *D NBUFFX4_RVT 
huff_packet\[937\] I *L 0.000e+00 *S 1.922e-03 4.102e-02 *D NBUFFX4_RVT 
huff_packet\[936\] I *L 0.000e+00 *S 1.922e-03 4.102e-02 *D NBUFFX4_RVT 
huff_packet\[935\] I *L 0.000e+00 *S 1.922e-03 4.102e-02 *D NBUFFX4_RVT 
huff_packet\[934\] I *L 0.000e+00 *S 1.922e-03 4.102e-02 *D NBUFFX4_RVT 
huff_packet\[933\] I *L 0.000e+00 *S 1.922e-03 4.102e-02 *D NBUFFX4_RVT 
huff_packet\[932\] I *L 0.000e+00 *S 1.922e-03 4.102e-02 *D NBUFFX4_RVT 
huff_packet\[931\] I *L 0.000e+00 *S 1.922e-03 4.102e-02 *D NBUFFX4_RVT 
huff_packet\[930\] I *L 0.000e+00 *S 1.922e-03 4.102e-02 *D NBUFFX4_RVT 
huff_packet\[929\] I *L 0.000e+00 *S 1.922e-03 4.102e-02 *D NBUFFX4_RVT 
huff_packet\[928\] I *L 0.000e+00 *S 1.968e-03 4.054e-02 *D NBUFFX4_RVT 
huff_packet\[927\] I *L 0.000e+00 *S 1.968e-03 4.054e-02 *D NBUFFX4_RVT 
huff_packet\[926\] I *L 0.000e+00 *S 1.968e-03 4.054e-02 *D NBUFFX4_RVT 
huff_packet\[925\] I *L 0.000e+00 *S 1.968e-03 4.054e-02 *D NBUFFX4_RVT 
huff_packet\[924\] I *L 0.000e+00 *S 1.968e-03 4.054e-02 *D NBUFFX4_RVT 
huff_packet\[923\] I *L 0.000e+00 *S 1.968e-03 4.054e-02 *D NBUFFX4_RVT 
huff_packet\[922\] I *L 0.000e+00 *S 1.968e-03 4.054e-02 *D NBUFFX4_RVT 
huff_packet\[921\] I *L 0.000e+00 *S 1.968e-03 4.054e-02 *D NBUFFX4_RVT 
huff_packet\[920\] I *L 0.000e+00 *S 2.130e-03 3.886e-02 *D NBUFFX4_RVT 
huff_packet\[919\] I *L 0.000e+00 *S 2.130e-03 3.886e-02 *D NBUFFX4_RVT 
huff_packet\[918\] I *L 0.000e+00 *S 2.130e-03 3.886e-02 *D NBUFFX4_RVT 
huff_packet\[917\] I *L 0.000e+00 *S 2.130e-03 3.886e-02 *D NBUFFX4_RVT 
huff_packet\[916\] I *L 0.000e+00 *S 2.130e-03 3.886e-02 *D NBUFFX4_RVT 
huff_packet\[915\] I *L 0.000e+00 *S 3.761e-03 2.374e-02 *D NBUFFX4_RVT 
huff_packet\[914\] I *L 0.000e+00 *S 3.699e-03 2.428e-02 *D NBUFFX4_RVT 
huff_packet\[913\] I *L 0.000e+00 *S 3.699e-03 2.428e-02 *D NBUFFX4_RVT 
huff_packet\[912\] I *L 0.000e+00 *S 3.721e-03 2.409e-02 *D NBUFFX4_RVT 
huff_packet\[911\] I *L 0.000e+00 *S 3.721e-03 2.409e-02 *D NBUFFX4_RVT 
huff_packet\[910\] I *L 0.000e+00 *S 3.761e-03 2.374e-02 *D NBUFFX4_RVT 
huff_packet\[909\] I *L 0.000e+00 *S 3.761e-03 2.374e-02 *D NBUFFX4_RVT 
huff_packet\[908\] I *L 0.000e+00 *S 3.761e-03 2.374e-02 *D NBUFFX4_RVT 
huff_packet\[907\] I *L 0.000e+00 *S 3.761e-03 2.374e-02 *D NBUFFX4_RVT 
huff_packet\[906\] I *L 0.000e+00 *S 3.699e-03 2.428e-02 *D NBUFFX4_RVT 
huff_packet\[905\] I *L 0.000e+00 *S 3.699e-03 2.428e-02 *D NBUFFX4_RVT 
huff_packet\[904\] I *L 0.000e+00 *S 3.761e-03 2.374e-02 *D NBUFFX4_RVT 
huff_packet\[903\] I *L 0.000e+00 *S 3.761e-03 2.374e-02 *D NBUFFX4_RVT 
huff_packet\[902\] I *L 0.000e+00 *S 3.761e-03 2.374e-02 *D NBUFFX4_RVT 
huff_packet\[901\] I *L 0.000e+00 *S 3.761e-03 2.374e-02 *D NBUFFX4_RVT 
huff_packet\[900\] I *L 0.000e+00 *S 3.761e-03 2.374e-02 *D NBUFFX4_RVT 
huff_packet\[899\] I *L 0.000e+00 *S 1.855e-03 4.172e-02 *D NBUFFX4_RVT 
huff_packet\[898\] I *L 0.000e+00 *S 1.855e-03 4.172e-02 *D NBUFFX4_RVT 
huff_packet\[897\] I *L 0.000e+00 *S 1.855e-03 4.172e-02 *D NBUFFX4_RVT 
huff_packet\[896\] I *L 0.000e+00 *S 1.855e-03 4.172e-02 *D NBUFFX4_RVT 
huff_packet\[895\] I *L 0.000e+00 *S 1.855e-03 4.172e-02 *D NBUFFX4_RVT 
huff_packet\[894\] I *L 0.000e+00 *S 1.855e-03 4.172e-02 *D NBUFFX4_RVT 
huff_packet\[893\] I *L 0.000e+00 *S 1.855e-03 4.172e-02 *D NBUFFX4_RVT 
huff_packet\[892\] I *L 0.000e+00 *S 1.855e-03 4.172e-02 *D NBUFFX4_RVT 
huff_packet\[891\] I *L 0.000e+00 *S 2.130e-03 3.886e-02 *D NBUFFX4_RVT 
huff_packet\[890\] I *L 0.000e+00 *S 2.130e-03 3.886e-02 *D NBUFFX4_RVT 
huff_packet\[889\] I *L 0.000e+00 *S 2.130e-03 3.886e-02 *D NBUFFX4_RVT 
huff_packet\[888\] I *L 0.000e+00 *S 2.130e-03 3.886e-02 *D NBUFFX4_RVT 
huff_packet\[887\] I *L 0.000e+00 *S 2.130e-03 3.886e-02 *D NBUFFX4_RVT 
huff_packet\[886\] I *L 0.000e+00 *S 3.551e-03 2.560e-02 *D NBUFFX4_RVT 
huff_packet\[885\] I *L 0.000e+00 *S 3.476e-03 2.626e-02 *D NBUFFX4_RVT 
huff_packet\[884\] I *L 0.000e+00 *S 3.551e-03 2.560e-02 *D NBUFFX4_RVT 
huff_packet\[883\] I *L 0.000e+00 *S 3.476e-03 2.626e-02 *D NBUFFX4_RVT 
huff_packet\[882\] I *L 0.000e+00 *S 3.551e-03 2.560e-02 *D NBUFFX4_RVT 
huff_packet\[881\] I *L 0.000e+00 *S 3.476e-03 2.626e-02 *D NBUFFX4_RVT 
huff_packet\[880\] I *L 0.000e+00 *S 3.551e-03 2.560e-02 *D NBUFFX4_RVT 
huff_packet\[879\] I *L 0.000e+00 *S 3.476e-03 2.626e-02 *D NBUFFX4_RVT 
huff_packet\[878\] I *L 0.000e+00 *S 3.551e-03 2.560e-02 *D NBUFFX4_RVT 
huff_packet\[877\] I *L 0.000e+00 *S 3.476e-03 2.626e-02 *D NBUFFX4_RVT 
huff_packet\[876\] I *L 0.000e+00 *S 3.551e-03 2.560e-02 *D NBUFFX4_RVT 
huff_packet\[875\] I *L 0.000e+00 *S 3.476e-03 2.626e-02 *D NBUFFX4_RVT 
huff_packet\[874\] I *L 0.000e+00 *S 3.551e-03 2.560e-02 *D NBUFFX4_RVT 
huff_packet\[873\] I *L 0.000e+00 *S 3.476e-03 2.626e-02 *D NBUFFX4_RVT 
huff_packet\[872\] I *L 0.000e+00 *S 3.476e-03 2.626e-02 *D NBUFFX4_RVT 
huff_packet\[871\] I *L 0.000e+00 *S 3.551e-03 2.560e-02 *D NBUFFX4_RVT 
huff_packet\[870\] I *L 0.000e+00 *S 1.922e-03 4.102e-02 *D NBUFFX4_RVT 
huff_packet\[869\] I *L 0.000e+00 *S 1.922e-03 4.102e-02 *D NBUFFX4_RVT 
huff_packet\[868\] I *L 0.000e+00 *S 1.922e-03 4.102e-02 *D NBUFFX4_RVT 
huff_packet\[867\] I *L 0.000e+00 *S 1.922e-03 4.102e-02 *D NBUFFX4_RVT 
huff_packet\[866\] I *L 0.000e+00 *S 1.922e-03 4.102e-02 *D NBUFFX4_RVT 
huff_packet\[865\] I *L 0.000e+00 *S 1.922e-03 4.102e-02 *D NBUFFX4_RVT 
huff_packet\[864\] I *L 0.000e+00 *S 1.922e-03 4.102e-02 *D NBUFFX4_RVT 
huff_packet\[863\] I *L 0.000e+00 *S 1.922e-03 4.102e-02 *D NBUFFX4_RVT 
huff_packet\[862\] I *L 0.000e+00 *S 2.130e-03 3.886e-02 *D NBUFFX4_RVT 
huff_packet\[861\] I *L 0.000e+00 *S 2.130e-03 3.886e-02 *D NBUFFX4_RVT 
huff_packet\[860\] I *L 0.000e+00 *S 2.130e-03 3.886e-02 *D NBUFFX4_RVT 
huff_packet\[859\] I *L 0.000e+00 *S 2.130e-03 3.886e-02 *D NBUFFX4_RVT 
huff_packet\[858\] I *L 0.000e+00 *S 2.130e-03 3.886e-02 *D NBUFFX4_RVT 
huff_packet\[857\] I *L 0.000e+00 *S 3.646e-03 2.476e-02 *D NBUFFX4_RVT 
huff_packet\[856\] I *L 0.000e+00 *S 3.699e-03 2.428e-02 *D NBUFFX4_RVT 
huff_packet\[855\] I *L 0.000e+00 *S 3.699e-03 2.428e-02 *D NBUFFX4_RVT 
huff_packet\[854\] I *L 0.000e+00 *S 2.130e-03 3.886e-02 *D NBUFFX4_RVT 
huff_packet\[853\] I *L 0.000e+00 *S 2.130e-03 3.886e-02 *D NBUFFX4_RVT 
huff_packet\[852\] I *L 0.000e+00 *S 3.699e-03 2.428e-02 *D NBUFFX4_RVT 
huff_packet\[851\] I *L 0.000e+00 *S 3.699e-03 2.428e-02 *D NBUFFX4_RVT 
huff_packet\[850\] I *L 0.000e+00 *S 3.699e-03 2.428e-02 *D NBUFFX4_RVT 
huff_packet\[849\] I *L 0.000e+00 *S 3.699e-03 2.428e-02 *D NBUFFX4_RVT 
huff_packet\[848\] I *L 0.000e+00 *S 3.699e-03 2.428e-02 *D NBUFFX4_RVT 
huff_packet\[847\] I *L 0.000e+00 *S 3.699e-03 2.428e-02 *D NBUFFX4_RVT 
huff_packet\[846\] I *L 0.000e+00 *S 3.699e-03 2.428e-02 *D NBUFFX4_RVT 
huff_packet\[845\] I *L 0.000e+00 *S 3.699e-03 2.428e-02 *D NBUFFX4_RVT 
huff_packet\[844\] I *L 0.000e+00 *S 3.699e-03 2.428e-02 *D NBUFFX4_RVT 
huff_packet\[843\] I *L 0.000e+00 *S 3.646e-03 2.476e-02 *D NBUFFX4_RVT 
huff_packet\[842\] I *L 0.000e+00 *S 3.646e-03 2.476e-02 *D NBUFFX4_RVT 
huff_packet\[841\] I *L 0.000e+00 *S 1.922e-03 4.102e-02 *D NBUFFX4_RVT 
huff_packet\[840\] I *L 0.000e+00 *S 1.922e-03 4.102e-02 *D NBUFFX4_RVT 
huff_packet\[839\] I *L 0.000e+00 *S 1.922e-03 4.102e-02 *D NBUFFX4_RVT 
huff_packet\[838\] I *L 0.000e+00 *S 1.922e-03 4.102e-02 *D NBUFFX4_RVT 
huff_packet\[837\] I *L 0.000e+00 *S 1.922e-03 4.102e-02 *D NBUFFX4_RVT 
huff_packet\[836\] I *L 0.000e+00 *S 1.922e-03 4.102e-02 *D NBUFFX4_RVT 
huff_packet\[835\] I *L 0.000e+00 *S 1.922e-03 4.102e-02 *D NBUFFX4_RVT 
huff_packet\[834\] I *L 0.000e+00 *S 1.922e-03 4.102e-02 *D NBUFFX4_RVT 
huff_packet\[833\] I *L 0.000e+00 *S 2.130e-03 3.886e-02 *D NBUFFX4_RVT 
huff_packet\[832\] I *L 0.000e+00 *S 2.130e-03 3.886e-02 *D NBUFFX4_RVT 
huff_packet\[831\] I *L 0.000e+00 *S 2.130e-03 3.886e-02 *D NBUFFX4_RVT 
huff_packet\[830\] I *L 0.000e+00 *S 2.130e-03 3.886e-02 *D NBUFFX4_RVT 
huff_packet\[829\] I *L 0.000e+00 *S 2.130e-03 3.886e-02 *D NBUFFX4_RVT 
huff_packet\[828\] I *L 0.000e+00 *S 3.721e-03 2.409e-02 *D NBUFFX4_RVT 
huff_packet\[827\] I *L 0.000e+00 *S 3.721e-03 2.409e-02 *D NBUFFX4_RVT 
huff_packet\[826\] I *L 0.000e+00 *S 3.721e-03 2.409e-02 *D NBUFFX4_RVT 
huff_packet\[825\] I *L 0.000e+00 *S 3.587e-03 2.528e-02 *D NBUFFX4_RVT 
huff_packet\[824\] I *L 0.000e+00 *S 3.587e-03 2.528e-02 *D NBUFFX4_RVT 
huff_packet\[823\] I *L 0.000e+00 *S 3.721e-03 2.409e-02 *D NBUFFX4_RVT 
huff_packet\[822\] I *L 0.000e+00 *S 3.721e-03 2.409e-02 *D NBUFFX4_RVT 
huff_packet\[821\] I *L 0.000e+00 *S 3.721e-03 2.409e-02 *D NBUFFX4_RVT 
huff_packet\[820\] I *L 0.000e+00 *S 3.721e-03 2.409e-02 *D NBUFFX4_RVT 
huff_packet\[819\] I *L 0.000e+00 *S 3.721e-03 2.409e-02 *D NBUFFX4_RVT 
huff_packet\[818\] I *L 0.000e+00 *S 3.721e-03 2.409e-02 *D NBUFFX4_RVT 
huff_packet\[817\] I *L 0.000e+00 *S 3.721e-03 2.409e-02 *D NBUFFX4_RVT 
huff_packet\[816\] I *L 0.000e+00 *S 3.721e-03 2.409e-02 *D NBUFFX4_RVT 
huff_packet\[815\] I *L 0.000e+00 *S 3.721e-03 2.409e-02 *D NBUFFX4_RVT 
huff_packet\[814\] I *L 0.000e+00 *S 3.721e-03 2.409e-02 *D NBUFFX4_RVT 
huff_packet\[813\] I *L 0.000e+00 *S 3.721e-03 2.409e-02 *D NBUFFX4_RVT 
huff_packet\[812\] I *L 0.000e+00 *S 1.855e-03 4.172e-02 *D NBUFFX4_RVT 
huff_packet\[811\] I *L 0.000e+00 *S 1.855e-03 4.172e-02 *D NBUFFX4_RVT 
huff_packet\[810\] I *L 0.000e+00 *S 1.855e-03 4.172e-02 *D NBUFFX4_RVT 
huff_packet\[809\] I *L 0.000e+00 *S 1.855e-03 4.172e-02 *D NBUFFX4_RVT 
huff_packet\[808\] I *L 0.000e+00 *S 1.855e-03 4.172e-02 *D NBUFFX4_RVT 
huff_packet\[807\] I *L 0.000e+00 *S 1.855e-03 4.172e-02 *D NBUFFX4_RVT 
huff_packet\[806\] I *L 0.000e+00 *S 1.855e-03 4.172e-02 *D NBUFFX4_RVT 
huff_packet\[805\] I *L 0.000e+00 *S 1.855e-03 4.172e-02 *D NBUFFX4_RVT 
huff_packet\[804\] I *L 0.000e+00 *S 2.130e-03 3.886e-02 *D NBUFFX4_RVT 
huff_packet\[803\] I *L 0.000e+00 *S 2.130e-03 3.886e-02 *D NBUFFX4_RVT 
huff_packet\[802\] I *L 0.000e+00 *S 2.130e-03 3.886e-02 *D NBUFFX4_RVT 
huff_packet\[801\] I *L 0.000e+00 *S 2.130e-03 3.886e-02 *D NBUFFX4_RVT 
huff_packet\[800\] I *L 0.000e+00 *S 2.130e-03 3.886e-02 *D NBUFFX4_RVT 
huff_packet\[799\] I *L 0.000e+00 *S 3.771e-03 2.364e-02 *D NBUFFX4_RVT 
huff_packet\[798\] I *L 0.000e+00 *S 3.638e-03 2.483e-02 *D NBUFFX4_RVT 
huff_packet\[797\] I *L 0.000e+00 *S 3.638e-03 2.483e-02 *D NBUFFX4_RVT 
huff_packet\[796\] I *L 0.000e+00 *S 3.638e-03 2.483e-02 *D NBUFFX4_RVT 
huff_packet\[795\] I *L 0.000e+00 *S 3.638e-03 2.483e-02 *D NBUFFX4_RVT 
huff_packet\[794\] I *L 0.000e+00 *S 3.638e-03 2.483e-02 *D NBUFFX4_RVT 
huff_packet\[793\] I *L 0.000e+00 *S 3.638e-03 2.483e-02 *D NBUFFX4_RVT 
huff_packet\[792\] I *L 0.000e+00 *S 3.638e-03 2.483e-02 *D NBUFFX4_RVT 
huff_packet\[791\] I *L 0.000e+00 *S 3.638e-03 2.483e-02 *D NBUFFX4_RVT 
huff_packet\[790\] I *L 0.000e+00 *S 3.638e-03 2.483e-02 *D NBUFFX4_RVT 
huff_packet\[789\] I *L 0.000e+00 *S 3.638e-03 2.483e-02 *D NBUFFX4_RVT 
huff_packet\[788\] I *L 0.000e+00 *S 3.638e-03 2.483e-02 *D NBUFFX4_RVT 
huff_packet\[787\] I *L 0.000e+00 *S 3.638e-03 2.483e-02 *D NBUFFX4_RVT 
huff_packet\[786\] I *L 0.000e+00 *S 3.638e-03 2.483e-02 *D NBUFFX4_RVT 
huff_packet\[785\] I *L 0.000e+00 *S 3.638e-03 2.483e-02 *D NBUFFX4_RVT 
huff_packet\[784\] I *L 0.000e+00 *S 3.638e-03 2.483e-02 *D NBUFFX4_RVT 
huff_packet\[783\] I *L 0.000e+00 *S 1.922e-03 4.102e-02 *D NBUFFX4_RVT 
huff_packet\[782\] I *L 0.000e+00 *S 1.922e-03 4.102e-02 *D NBUFFX4_RVT 
huff_packet\[781\] I *L 0.000e+00 *S 1.922e-03 4.102e-02 *D NBUFFX4_RVT 
huff_packet\[780\] I *L 0.000e+00 *S 1.922e-03 4.102e-02 *D NBUFFX4_RVT 
huff_packet\[779\] I *L 0.000e+00 *S 1.922e-03 4.102e-02 *D NBUFFX4_RVT 
huff_packet\[778\] I *L 0.000e+00 *S 1.922e-03 4.102e-02 *D NBUFFX4_RVT 
huff_packet\[777\] I *L 0.000e+00 *S 1.922e-03 4.102e-02 *D NBUFFX4_RVT 
huff_packet\[776\] I *L 0.000e+00 *S 1.922e-03 4.102e-02 *D NBUFFX4_RVT 
huff_packet\[775\] I *L 0.000e+00 *S 2.130e-03 3.886e-02 *D NBUFFX4_RVT 
huff_packet\[774\] I *L 0.000e+00 *S 2.130e-03 3.886e-02 *D NBUFFX4_RVT 
huff_packet\[773\] I *L 0.000e+00 *S 2.130e-03 3.886e-02 *D NBUFFX4_RVT 
huff_packet\[772\] I *L 0.000e+00 *S 2.130e-03 3.886e-02 *D NBUFFX4_RVT 
huff_packet\[771\] I *L 0.000e+00 *S 2.130e-03 3.886e-02 *D NBUFFX4_RVT 
huff_packet\[770\] I *L 0.000e+00 *S 3.646e-03 2.476e-02 *D NBUFFX4_RVT 
huff_packet\[769\] I *L 0.000e+00 *S 3.914e-03 2.237e-02 *D NBUFFX4_RVT 
huff_packet\[768\] I *L 0.000e+00 *S 3.914e-03 2.237e-02 *D NBUFFX4_RVT 
huff_packet\[767\] I *L 0.000e+00 *S 3.914e-03 2.237e-02 *D NBUFFX4_RVT 
huff_packet\[766\] I *L 0.000e+00 *S 3.914e-03 2.237e-02 *D NBUFFX4_RVT 
huff_packet\[765\] I *L 0.000e+00 *S 3.914e-03 2.237e-02 *D NBUFFX4_RVT 
huff_packet\[764\] I *L 0.000e+00 *S 3.914e-03 2.237e-02 *D NBUFFX4_RVT 
huff_packet\[763\] I *L 0.000e+00 *S 3.914e-03 2.237e-02 *D NBUFFX4_RVT 
huff_packet\[762\] I *L 0.000e+00 *S 3.914e-03 2.237e-02 *D NBUFFX4_RVT 
huff_packet\[761\] I *L 0.000e+00 *S 3.692e-03 2.435e-02 *D NBUFFX4_RVT 
huff_packet\[760\] I *L 0.000e+00 *S 3.914e-03 2.237e-02 *D NBUFFX4_RVT 
huff_packet\[759\] I *L 0.000e+00 *S 3.914e-03 2.237e-02 *D NBUFFX4_RVT 
huff_packet\[758\] I *L 0.000e+00 *S 3.914e-03 2.237e-02 *D NBUFFX4_RVT 
huff_packet\[757\] I *L 0.000e+00 *S 3.914e-03 2.237e-02 *D NBUFFX4_RVT 
huff_packet\[756\] I *L 0.000e+00 *S 3.914e-03 2.237e-02 *D NBUFFX4_RVT 
huff_packet\[755\] I *L 0.000e+00 *S 3.692e-03 2.435e-02 *D NBUFFX4_RVT 
huff_packet\[754\] I *L 0.000e+00 *S 1.855e-03 4.172e-02 *D NBUFFX4_RVT 
huff_packet\[753\] I *L 0.000e+00 *S 1.855e-03 4.172e-02 *D NBUFFX4_RVT 
huff_packet\[752\] I *L 0.000e+00 *S 1.855e-03 4.172e-02 *D NBUFFX4_RVT 
huff_packet\[751\] I *L 0.000e+00 *S 1.855e-03 4.172e-02 *D NBUFFX4_RVT 
huff_packet\[750\] I *L 0.000e+00 *S 1.855e-03 4.172e-02 *D NBUFFX4_RVT 
huff_packet\[749\] I *L 0.000e+00 *S 1.855e-03 4.172e-02 *D NBUFFX4_RVT 
huff_packet\[748\] I *L 0.000e+00 *S 1.855e-03 4.172e-02 *D NBUFFX4_RVT 
huff_packet\[747\] I *L 0.000e+00 *S 1.855e-03 4.172e-02 *D NBUFFX4_RVT 
huff_packet\[746\] I *L 0.000e+00 *S 1.772e-03 4.257e-02 *D NBUFFX4_RVT 
huff_packet\[745\] I *L 0.000e+00 *S 1.772e-03 4.257e-02 *D NBUFFX4_RVT 
huff_packet\[744\] I *L 0.000e+00 *S 1.772e-03 4.257e-02 *D NBUFFX4_RVT 
huff_packet\[743\] I *L 0.000e+00 *S 1.772e-03 4.257e-02 *D NBUFFX4_RVT 
huff_packet\[742\] I *L 0.000e+00 *S 1.772e-03 4.257e-02 *D NBUFFX4_RVT 
huff_packet\[741\] I *L 0.000e+00 *S 3.646e-03 2.476e-02 *D NBUFFX4_RVT 
huff_packet\[740\] I *L 0.000e+00 *S 3.646e-03 2.476e-02 *D NBUFFX4_RVT 
huff_packet\[739\] I *L 0.000e+00 *S 3.646e-03 2.476e-02 *D NBUFFX4_RVT 
huff_packet\[738\] I *L 0.000e+00 *S 3.801e-03 2.338e-02 *D NBUFFX4_RVT 
huff_packet\[737\] I *L 0.000e+00 *S 3.801e-03 2.338e-02 *D NBUFFX4_RVT 
huff_packet\[736\] I *L 0.000e+00 *S 3.627e-03 2.492e-02 *D NBUFFX4_RVT 
huff_packet\[735\] I *L 0.000e+00 *S 3.627e-03 2.492e-02 *D NBUFFX4_RVT 
huff_packet\[734\] I *L 0.000e+00 *S 3.627e-03 2.492e-02 *D NBUFFX4_RVT 
huff_packet\[733\] I *L 0.000e+00 *S 3.627e-03 2.492e-02 *D NBUFFX4_RVT 
huff_packet\[732\] I *L 0.000e+00 *S 3.646e-03 2.476e-02 *D NBUFFX4_RVT 
huff_packet\[731\] I *L 0.000e+00 *S 3.627e-03 2.492e-02 *D NBUFFX4_RVT 
huff_packet\[730\] I *L 0.000e+00 *S 3.627e-03 2.492e-02 *D NBUFFX4_RVT 
huff_packet\[729\] I *L 0.000e+00 *S 3.627e-03 2.492e-02 *D NBUFFX4_RVT 
huff_packet\[728\] I *L 0.000e+00 *S 3.627e-03 2.492e-02 *D NBUFFX4_RVT 
huff_packet\[727\] I *L 0.000e+00 *S 3.646e-03 2.476e-02 *D NBUFFX4_RVT 
huff_packet\[726\] I *L 0.000e+00 *S 3.646e-03 2.476e-02 *D NBUFFX4_RVT 
huff_packet\[725\] I *L 0.000e+00 *S 2.066e-03 3.953e-02 *D NBUFFX4_RVT 
huff_packet\[724\] I *L 0.000e+00 *S 2.066e-03 3.953e-02 *D NBUFFX4_RVT 
huff_packet\[723\] I *L 0.000e+00 *S 2.066e-03 3.953e-02 *D NBUFFX4_RVT 
huff_packet\[722\] I *L 0.000e+00 *S 2.066e-03 3.953e-02 *D NBUFFX4_RVT 
huff_packet\[721\] I *L 0.000e+00 *S 2.066e-03 3.953e-02 *D NBUFFX4_RVT 
huff_packet\[720\] I *L 0.000e+00 *S 2.066e-03 3.953e-02 *D NBUFFX4_RVT 
huff_packet\[719\] I *L 0.000e+00 *S 2.066e-03 3.953e-02 *D NBUFFX4_RVT 
huff_packet\[718\] I *L 0.000e+00 *S 2.066e-03 3.953e-02 *D NBUFFX4_RVT 
huff_packet\[717\] I *L 0.000e+00 *S 1.772e-03 4.257e-02 *D NBUFFX4_RVT 
huff_packet\[716\] I *L 0.000e+00 *S 1.772e-03 4.257e-02 *D NBUFFX4_RVT 
huff_packet\[715\] I *L 0.000e+00 *S 2.130e-03 3.886e-02 *D NBUFFX4_RVT 
huff_packet\[714\] I *L 0.000e+00 *S 2.130e-03 3.886e-02 *D NBUFFX4_RVT 
huff_packet\[713\] I *L 0.000e+00 *S 2.130e-03 3.886e-02 *D NBUFFX4_RVT 
huff_packet\[712\] I *L 0.000e+00 *S 2.130e-03 3.886e-02 *D NBUFFX4_RVT 
huff_packet\[711\] I *L 0.000e+00 *S 2.130e-03 3.886e-02 *D NBUFFX4_RVT 
huff_packet\[710\] I *L 0.000e+00 *S 2.130e-03 3.886e-02 *D NBUFFX4_RVT 
huff_packet\[709\] I *L 0.000e+00 *S 2.130e-03 3.886e-02 *D NBUFFX4_RVT 
huff_packet\[708\] I *L 0.000e+00 *S 1.791e-03 4.237e-02 *D NBUFFX4_RVT 
huff_packet\[707\] I *L 0.000e+00 *S 1.791e-03 4.237e-02 *D NBUFFX4_RVT 
huff_packet\[706\] I *L 0.000e+00 *S 1.791e-03 4.237e-02 *D NBUFFX4_RVT 
huff_packet\[705\] I *L 0.000e+00 *S 1.791e-03 4.237e-02 *D NBUFFX4_RVT 
huff_packet\[704\] I *L 0.000e+00 *S 1.791e-03 4.237e-02 *D NBUFFX4_RVT 
huff_packet\[703\] I *L 0.000e+00 *S 1.791e-03 4.237e-02 *D NBUFFX4_RVT 
huff_packet\[702\] I *L 0.000e+00 *S 1.791e-03 4.237e-02 *D NBUFFX4_RVT 
huff_packet\[701\] I *L 0.000e+00 *S 1.791e-03 4.237e-02 *D NBUFFX4_RVT 
huff_packet\[700\] I *L 0.000e+00 *S 1.791e-03 4.237e-02 *D NBUFFX4_RVT 
huff_packet\[699\] I *L 0.000e+00 *S 1.791e-03 4.237e-02 *D NBUFFX4_RVT 
huff_packet\[698\] I *L 0.000e+00 *S 1.791e-03 4.237e-02 *D NBUFFX4_RVT 
huff_packet\[697\] I *L 0.000e+00 *S 1.791e-03 4.237e-02 *D NBUFFX4_RVT 
huff_packet\[696\] I *L 0.000e+00 *S 1.791e-03 4.237e-02 *D NBUFFX4_RVT 
huff_packet\[695\] I *L 0.000e+00 *S 1.791e-03 4.237e-02 *D NBUFFX4_RVT 
huff_packet\[694\] I *L 0.000e+00 *S 1.791e-03 4.237e-02 *D NBUFFX4_RVT 
huff_packet\[693\] I *L 0.000e+00 *S 1.791e-03 4.237e-02 *D NBUFFX4_RVT 
huff_packet\[692\] I *L 0.000e+00 *S 1.968e-03 4.054e-02 *D NBUFFX4_RVT 
huff_packet\[691\] I *L 0.000e+00 *S 1.968e-03 4.054e-02 *D NBUFFX4_RVT 
huff_packet\[690\] I *L 0.000e+00 *S 1.968e-03 4.054e-02 *D NBUFFX4_RVT 
huff_packet\[689\] I *L 0.000e+00 *S 1.968e-03 4.054e-02 *D NBUFFX4_RVT 
huff_packet\[688\] I *L 0.000e+00 *S 1.968e-03 4.054e-02 *D NBUFFX4_RVT 
huff_packet\[687\] I *L 0.000e+00 *S 1.968e-03 4.054e-02 *D NBUFFX4_RVT 
huff_packet\[686\] I *L 0.000e+00 *S 1.968e-03 4.054e-02 *D NBUFFX4_RVT 
huff_packet\[685\] I *L 0.000e+00 *S 1.968e-03 4.054e-02 *D NBUFFX4_RVT 
huff_packet\[684\] I *L 0.000e+00 *S 2.130e-03 3.886e-02 *D NBUFFX4_RVT 
huff_packet\[683\] I *L 0.000e+00 *S 2.130e-03 3.886e-02 *D NBUFFX4_RVT 
huff_packet\[682\] I *L 0.000e+00 *S 2.130e-03 3.886e-02 *D NBUFFX4_RVT 
huff_packet\[681\] I *L 0.000e+00 *S 2.130e-03 3.886e-02 *D NBUFFX4_RVT 
huff_packet\[680\] I *L 0.000e+00 *S 2.130e-03 3.886e-02 *D NBUFFX4_RVT 
huff_packet\[679\] I *L 0.000e+00 *S 3.771e-03 2.364e-02 *D NBUFFX4_RVT 
huff_packet\[678\] I *L 0.000e+00 *S 3.699e-03 2.428e-02 *D NBUFFX4_RVT 
huff_packet\[677\] I *L 0.000e+00 *S 3.699e-03 2.428e-02 *D NBUFFX4_RVT 
huff_packet\[676\] I *L 0.000e+00 *S 2.130e-03 3.886e-02 *D NBUFFX4_RVT 
huff_packet\[675\] I *L 0.000e+00 *S 2.130e-03 3.886e-02 *D NBUFFX4_RVT 
huff_packet\[674\] I *L 0.000e+00 *S 3.753e-03 2.381e-02 *D NBUFFX4_RVT 
huff_packet\[673\] I *L 0.000e+00 *S 3.753e-03 2.381e-02 *D NBUFFX4_RVT 
huff_packet\[672\] I *L 0.000e+00 *S 3.753e-03 2.381e-02 *D NBUFFX4_RVT 
huff_packet\[671\] I *L 0.000e+00 *S 3.753e-03 2.381e-02 *D NBUFFX4_RVT 
huff_packet\[670\] I *L 0.000e+00 *S 3.699e-03 2.428e-02 *D NBUFFX4_RVT 
huff_packet\[669\] I *L 0.000e+00 *S 3.699e-03 2.428e-02 *D NBUFFX4_RVT 
huff_packet\[668\] I *L 0.000e+00 *S 3.753e-03 2.381e-02 *D NBUFFX4_RVT 
huff_packet\[667\] I *L 0.000e+00 *S 3.753e-03 2.381e-02 *D NBUFFX4_RVT 
huff_packet\[666\] I *L 0.000e+00 *S 3.753e-03 2.381e-02 *D NBUFFX4_RVT 
huff_packet\[665\] I *L 0.000e+00 *S 3.771e-03 2.364e-02 *D NBUFFX4_RVT 
huff_packet\[664\] I *L 0.000e+00 *S 3.771e-03 2.364e-02 *D NBUFFX4_RVT 
huff_packet\[663\] I *L 0.000e+00 *S 1.922e-03 4.102e-02 *D NBUFFX4_RVT 
huff_packet\[662\] I *L 0.000e+00 *S 1.922e-03 4.102e-02 *D NBUFFX4_RVT 
huff_packet\[661\] I *L 0.000e+00 *S 1.922e-03 4.102e-02 *D NBUFFX4_RVT 
huff_packet\[660\] I *L 0.000e+00 *S 1.922e-03 4.102e-02 *D NBUFFX4_RVT 
huff_packet\[659\] I *L 0.000e+00 *S 1.922e-03 4.102e-02 *D NBUFFX4_RVT 
huff_packet\[658\] I *L 0.000e+00 *S 1.922e-03 4.102e-02 *D NBUFFX4_RVT 
huff_packet\[657\] I *L 0.000e+00 *S 1.922e-03 4.102e-02 *D NBUFFX4_RVT 
huff_packet\[656\] I *L 0.000e+00 *S 1.922e-03 4.102e-02 *D NBUFFX4_RVT 
huff_packet\[655\] I *L 0.000e+00 *S 2.130e-03 3.886e-02 *D NBUFFX4_RVT 
huff_packet\[654\] I *L 0.000e+00 *S 2.130e-03 3.886e-02 *D NBUFFX4_RVT 
huff_packet\[653\] I *L 0.000e+00 *S 2.130e-03 3.886e-02 *D NBUFFX4_RVT 
huff_packet\[652\] I *L 0.000e+00 *S 2.130e-03 3.886e-02 *D NBUFFX4_RVT 
huff_packet\[651\] I *L 0.000e+00 *S 2.130e-03 3.886e-02 *D NBUFFX4_RVT 
huff_packet\[650\] I *L 0.000e+00 *S 3.761e-03 2.374e-02 *D NBUFFX4_RVT 
huff_packet\[649\] I *L 0.000e+00 *S 3.721e-03 2.409e-02 *D NBUFFX4_RVT 
huff_packet\[648\] I *L 0.000e+00 *S 3.721e-03 2.409e-02 *D NBUFFX4_RVT 
huff_packet\[647\] I *L 0.000e+00 *S 3.721e-03 2.409e-02 *D NBUFFX4_RVT 
huff_packet\[646\] I *L 0.000e+00 *S 3.721e-03 2.409e-02 *D NBUFFX4_RVT 
huff_packet\[645\] I *L 0.000e+00 *S 3.721e-03 2.409e-02 *D NBUFFX4_RVT 
huff_packet\[644\] I *L 0.000e+00 *S 3.721e-03 2.409e-02 *D NBUFFX4_RVT 
huff_packet\[643\] I *L 0.000e+00 *S 3.721e-03 2.409e-02 *D NBUFFX4_RVT 
huff_packet\[642\] I *L 0.000e+00 *S 3.721e-03 2.409e-02 *D NBUFFX4_RVT 
huff_packet\[641\] I *L 0.000e+00 *S 3.761e-03 2.374e-02 *D NBUFFX4_RVT 
huff_packet\[640\] I *L 0.000e+00 *S 3.721e-03 2.409e-02 *D NBUFFX4_RVT 
huff_packet\[639\] I *L 0.000e+00 *S 3.721e-03 2.409e-02 *D NBUFFX4_RVT 
huff_packet\[638\] I *L 0.000e+00 *S 3.721e-03 2.409e-02 *D NBUFFX4_RVT 
huff_packet\[637\] I *L 0.000e+00 *S 3.721e-03 2.409e-02 *D NBUFFX4_RVT 
huff_packet\[636\] I *L 0.000e+00 *S 3.721e-03 2.409e-02 *D NBUFFX4_RVT 
huff_packet\[635\] I *L 0.000e+00 *S 3.761e-03 2.374e-02 *D NBUFFX4_RVT 
huff_packet\[634\] I *L 0.000e+00 *S 1.791e-03 4.237e-02 *D NBUFFX4_RVT 
huff_packet\[633\] I *L 0.000e+00 *S 1.791e-03 4.237e-02 *D NBUFFX4_RVT 
huff_packet\[632\] I *L 0.000e+00 *S 1.791e-03 4.237e-02 *D NBUFFX4_RVT 
huff_packet\[631\] I *L 0.000e+00 *S 1.791e-03 4.237e-02 *D NBUFFX4_RVT 
huff_packet\[630\] I *L 0.000e+00 *S 1.791e-03 4.237e-02 *D NBUFFX4_RVT 
huff_packet\[629\] I *L 0.000e+00 *S 1.791e-03 4.237e-02 *D NBUFFX4_RVT 
huff_packet\[628\] I *L 0.000e+00 *S 1.791e-03 4.237e-02 *D NBUFFX4_RVT 
huff_packet\[627\] I *L 0.000e+00 *S 1.791e-03 4.237e-02 *D NBUFFX4_RVT 
huff_packet\[626\] I *L 0.000e+00 *S 2.130e-03 3.886e-02 *D NBUFFX4_RVT 
huff_packet\[625\] I *L 0.000e+00 *S 2.130e-03 3.886e-02 *D NBUFFX4_RVT 
huff_packet\[624\] I *L 0.000e+00 *S 2.130e-03 3.886e-02 *D NBUFFX4_RVT 
huff_packet\[623\] I *L 0.000e+00 *S 2.130e-03 3.886e-02 *D NBUFFX4_RVT 
huff_packet\[622\] I *L 0.000e+00 *S 2.130e-03 3.886e-02 *D NBUFFX4_RVT 
huff_packet\[621\] I *L 0.000e+00 *S 3.476e-03 2.626e-02 *D NBUFFX4_RVT 
huff_packet\[620\] I *L 0.000e+00 *S 3.476e-03 2.626e-02 *D NBUFFX4_RVT 
huff_packet\[619\] I *L 0.000e+00 *S 3.476e-03 2.626e-02 *D NBUFFX4_RVT 
huff_packet\[618\] I *L 0.000e+00 *S 2.130e-03 3.886e-02 *D NBUFFX4_RVT 
huff_packet\[617\] I *L 0.000e+00 *S 2.130e-03 3.886e-02 *D NBUFFX4_RVT 
huff_packet\[616\] I *L 0.000e+00 *S 3.529e-03 2.579e-02 *D NBUFFX4_RVT 
huff_packet\[615\] I *L 0.000e+00 *S 3.529e-03 2.579e-02 *D NBUFFX4_RVT 
huff_packet\[614\] I *L 0.000e+00 *S 3.529e-03 2.579e-02 *D NBUFFX4_RVT 
huff_packet\[613\] I *L 0.000e+00 *S 3.529e-03 2.579e-02 *D NBUFFX4_RVT 
huff_packet\[612\] I *L 0.000e+00 *S 3.476e-03 2.626e-02 *D NBUFFX4_RVT 
huff_packet\[611\] I *L 0.000e+00 *S 3.529e-03 2.579e-02 *D NBUFFX4_RVT 
huff_packet\[610\] I *L 0.000e+00 *S 3.529e-03 2.579e-02 *D NBUFFX4_RVT 
huff_packet\[609\] I *L 0.000e+00 *S 3.529e-03 2.579e-02 *D NBUFFX4_RVT 
huff_packet\[608\] I *L 0.000e+00 *S 3.529e-03 2.579e-02 *D NBUFFX4_RVT 
huff_packet\[607\] I *L 0.000e+00 *S 3.476e-03 2.626e-02 *D NBUFFX4_RVT 
huff_packet\[606\] I *L 0.000e+00 *S 3.476e-03 2.626e-02 *D NBUFFX4_RVT 
huff_packet\[605\] I *L 0.000e+00 *S 1.791e-03 4.237e-02 *D NBUFFX4_RVT 
huff_packet\[604\] I *L 0.000e+00 *S 1.791e-03 4.237e-02 *D NBUFFX4_RVT 
huff_packet\[603\] I *L 0.000e+00 *S 1.791e-03 4.237e-02 *D NBUFFX4_RVT 
huff_packet\[602\] I *L 0.000e+00 *S 1.791e-03 4.237e-02 *D NBUFFX4_RVT 
huff_packet\[601\] I *L 0.000e+00 *S 1.791e-03 4.237e-02 *D NBUFFX4_RVT 
huff_packet\[600\] I *L 0.000e+00 *S 1.791e-03 4.237e-02 *D NBUFFX4_RVT 
huff_packet\[599\] I *L 0.000e+00 *S 1.791e-03 4.237e-02 *D NBUFFX4_RVT 
huff_packet\[598\] I *L 0.000e+00 *S 1.791e-03 4.237e-02 *D NBUFFX4_RVT 
huff_packet\[597\] I *L 0.000e+00 *S 2.130e-03 3.886e-02 *D NBUFFX4_RVT 
huff_packet\[596\] I *L 0.000e+00 *S 2.130e-03 3.886e-02 *D NBUFFX4_RVT 
huff_packet\[595\] I *L 0.000e+00 *S 2.130e-03 3.886e-02 *D NBUFFX4_RVT 
huff_packet\[594\] I *L 0.000e+00 *S 2.130e-03 3.886e-02 *D NBUFFX4_RVT 
huff_packet\[593\] I *L 0.000e+00 *S 2.130e-03 3.886e-02 *D NBUFFX4_RVT 
huff_packet\[592\] I *L 0.000e+00 *S 3.602e-03 2.515e-02 *D NBUFFX4_RVT 
huff_packet\[591\] I *L 0.000e+00 *S 3.602e-03 2.515e-02 *D NBUFFX4_RVT 
huff_packet\[590\] I *L 0.000e+00 *S 3.602e-03 2.515e-02 *D NBUFFX4_RVT 
huff_packet\[589\] I *L 0.000e+00 *S 3.824e-03 2.317e-02 *D NBUFFX4_RVT 
huff_packet\[588\] I *L 0.000e+00 *S 3.824e-03 2.317e-02 *D NBUFFX4_RVT 
huff_packet\[587\] I *L 0.000e+00 *S 3.602e-03 2.515e-02 *D NBUFFX4_RVT 
huff_packet\[586\] I *L 0.000e+00 *S 3.602e-03 2.515e-02 *D NBUFFX4_RVT 
huff_packet\[585\] I *L 0.000e+00 *S 3.602e-03 2.515e-02 *D NBUFFX4_RVT 
huff_packet\[584\] I *L 0.000e+00 *S 3.602e-03 2.515e-02 *D NBUFFX4_RVT 
huff_packet\[583\] I *L 0.000e+00 *S 3.548e-03 2.563e-02 *D NBUFFX4_RVT 
huff_packet\[582\] I *L 0.000e+00 *S 3.548e-03 2.563e-02 *D NBUFFX4_RVT 
huff_packet\[581\] I *L 0.000e+00 *S 3.602e-03 2.515e-02 *D NBUFFX4_RVT 
huff_packet\[580\] I *L 0.000e+00 *S 3.602e-03 2.515e-02 *D NBUFFX4_RVT 
huff_packet\[579\] I *L 0.000e+00 *S 3.602e-03 2.515e-02 *D NBUFFX4_RVT 
huff_packet\[578\] I *L 0.000e+00 *S 3.602e-03 2.515e-02 *D NBUFFX4_RVT 
huff_packet\[577\] I *L 0.000e+00 *S 3.602e-03 2.515e-02 *D NBUFFX4_RVT 
huff_packet\[576\] I *L 0.000e+00 *S 1.791e-03 4.237e-02 *D NBUFFX4_RVT 
huff_packet\[575\] I *L 0.000e+00 *S 1.791e-03 4.237e-02 *D NBUFFX4_RVT 
huff_packet\[574\] I *L 0.000e+00 *S 1.791e-03 4.237e-02 *D NBUFFX4_RVT 
huff_packet\[573\] I *L 0.000e+00 *S 1.791e-03 4.237e-02 *D NBUFFX4_RVT 
huff_packet\[572\] I *L 0.000e+00 *S 1.791e-03 4.237e-02 *D NBUFFX4_RVT 
huff_packet\[571\] I *L 0.000e+00 *S 1.791e-03 4.237e-02 *D NBUFFX4_RVT 
huff_packet\[570\] I *L 0.000e+00 *S 1.791e-03 4.237e-02 *D NBUFFX4_RVT 
huff_packet\[569\] I *L 0.000e+00 *S 1.791e-03 4.237e-02 *D NBUFFX4_RVT 
huff_packet\[568\] I *L 0.000e+00 *S 2.130e-03 3.886e-02 *D NBUFFX4_RVT 
huff_packet\[567\] I *L 0.000e+00 *S 2.130e-03 3.886e-02 *D NBUFFX4_RVT 
huff_packet\[566\] I *L 0.000e+00 *S 2.130e-03 3.886e-02 *D NBUFFX4_RVT 
huff_packet\[565\] I *L 0.000e+00 *S 2.130e-03 3.886e-02 *D NBUFFX4_RVT 
huff_packet\[564\] I *L 0.000e+00 *S 2.130e-03 3.886e-02 *D NBUFFX4_RVT 
huff_packet\[563\] I *L 0.000e+00 *S 3.602e-03 2.515e-02 *D NBUFFX4_RVT 
huff_packet\[562\] I *L 0.000e+00 *S 3.779e-03 2.357e-02 *D NBUFFX4_RVT 
huff_packet\[561\] I *L 0.000e+00 *S 3.779e-03 2.357e-02 *D NBUFFX4_RVT 
huff_packet\[560\] I *L 0.000e+00 *S 3.779e-03 2.357e-02 *D NBUFFX4_RVT 
huff_packet\[559\] I *L 0.000e+00 *S 3.779e-03 2.357e-02 *D NBUFFX4_RVT 
huff_packet\[558\] I *L 0.000e+00 *S 3.779e-03 2.357e-02 *D NBUFFX4_RVT 
huff_packet\[557\] I *L 0.000e+00 *S 3.779e-03 2.357e-02 *D NBUFFX4_RVT 
huff_packet\[556\] I *L 0.000e+00 *S 3.779e-03 2.357e-02 *D NBUFFX4_RVT 
huff_packet\[555\] I *L 0.000e+00 *S 3.779e-03 2.357e-02 *D NBUFFX4_RVT 
huff_packet\[554\] I *L 0.000e+00 *S 3.779e-03 2.357e-02 *D NBUFFX4_RVT 
huff_packet\[553\] I *L 0.000e+00 *S 3.779e-03 2.357e-02 *D NBUFFX4_RVT 
huff_packet\[552\] I *L 0.000e+00 *S 3.779e-03 2.357e-02 *D NBUFFX4_RVT 
huff_packet\[551\] I *L 0.000e+00 *S 3.779e-03 2.357e-02 *D NBUFFX4_RVT 
huff_packet\[550\] I *L 0.000e+00 *S 3.779e-03 2.357e-02 *D NBUFFX4_RVT 
huff_packet\[549\] I *L 0.000e+00 *S 3.779e-03 2.357e-02 *D NBUFFX4_RVT 
huff_packet\[548\] I *L 0.000e+00 *S 3.779e-03 2.357e-02 *D NBUFFX4_RVT 
huff_packet\[547\] I *L 0.000e+00 *S 1.855e-03 4.172e-02 *D NBUFFX4_RVT 
huff_packet\[546\] I *L 0.000e+00 *S 1.855e-03 4.172e-02 *D NBUFFX4_RVT 
huff_packet\[545\] I *L 0.000e+00 *S 1.855e-03 4.172e-02 *D NBUFFX4_RVT 
huff_packet\[544\] I *L 0.000e+00 *S 1.855e-03 4.172e-02 *D NBUFFX4_RVT 