*SPEF "IEEE 1481-1999"
*DESIGN "top"
*DATE "Fri Dec  6 22:32:49 2024"
*VENDOR "SYNOPSYS INC"
*PROGRAM "Synopsys Design Compiler cmos"
*VERSION "T-2022.03-SP3"
*DESIGN_FLOW "SYNTHESIS"
*DIVIDER /
*DELIMITER :
*BUS_DELIMITER []
*T_UNIT 1.0 NS
*C_UNIT 0.0010 PF
*R_UNIT 1000.0 KOHM
*L_UNIT 1.0 HENRY

*PORTS

clk I *L 0.000e+00 *S 0.000e+00 2.160e-01 *D NBUFFX4_RVT 
rst I *L 0.000e+00 *S 1.326e-02 1.522e-02 *D NBUFFX4_RVT 
data_in\[31\] I *L 0.000e+00 *S 3.933e-03 2.221e-02 *D NBUFFX4_RVT 
data_in\[30\] I *L 0.000e+00 *S 3.933e-03 2.221e-02 *D NBUFFX4_RVT 
data_in\[29\] I *L 0.000e+00 *S 3.933e-03 2.221e-02 *D NBUFFX4_RVT 
data_in\[28\] I *L 0.000e+00 *S 3.933e-03 2.221e-02 *D NBUFFX4_RVT 
data_in\[27\] I *L 0.000e+00 *S 3.933e-03 2.221e-02 *D NBUFFX4_RVT 
data_in\[26\] I *L 0.000e+00 *S 3.933e-03 2.221e-02 *D NBUFFX4_RVT 
data_in\[25\] I *L 0.000e+00 *S 3.933e-03 2.221e-02 *D NBUFFX4_RVT 
data_in\[24\] I *L 0.000e+00 *S 3.933e-03 2.221e-02 *D NBUFFX4_RVT 
data_in\[23\] I *L 0.000e+00 *S 3.933e-03 2.221e-02 *D NBUFFX4_RVT 
data_in\[22\] I *L 0.000e+00 *S 3.933e-03 2.221e-02 *D NBUFFX4_RVT 
data_in\[21\] I *L 0.000e+00 *S 3.933e-03 2.221e-02 *D NBUFFX4_RVT 
data_in\[20\] I *L 0.000e+00 *S 3.933e-03 2.221e-02 *D NBUFFX4_RVT 
data_in\[19\] I *L 0.000e+00 *S 3.933e-03 2.221e-02 *D NBUFFX4_RVT 
data_in\[18\] I *L 0.000e+00 *S 3.933e-03 2.221e-02 *D NBUFFX4_RVT 
data_in\[17\] I *L 0.000e+00 *S 3.933e-03 2.221e-02 *D NBUFFX4_RVT 
data_in\[16\] I *L 0.000e+00 *S 3.933e-03 2.221e-02 *D NBUFFX4_RVT 
data_in\[15\] I *L 0.000e+00 *S 3.880e-03 2.267e-02 *D NBUFFX4_RVT 
data_in\[14\] I *L 0.000e+00 *S 3.933e-03 2.221e-02 *D NBUFFX4_RVT 
data_in\[13\] I *L 0.000e+00 *S 3.933e-03 2.221e-02 *D NBUFFX4_RVT 
data_in\[12\] I *L 0.000e+00 *S 3.933e-03 2.221e-02 *D NBUFFX4_RVT 
data_in\[11\] I *L 0.000e+00 *S 3.933e-03 2.221e-02 *D NBUFFX4_RVT 
data_in\[10\] I *L 0.000e+00 *S 3.933e-03 2.221e-02 *D NBUFFX4_RVT 
data_in\[9\] I *L 0.000e+00 *S 3.933e-03 2.221e-02 *D NBUFFX4_RVT 
data_in\[8\] I *L 0.000e+00 *S 3.933e-03 2.221e-02 *D NBUFFX4_RVT 
data_in\[7\] I *L 0.000e+00 *S 3.933e-03 2.221e-02 *D NBUFFX4_RVT 
data_in\[6\] I *L 0.000e+00 *S 3.933e-03 2.221e-02 *D NBUFFX4_RVT 
data_in\[5\] I *L 0.000e+00 *S 3.933e-03 2.221e-02 *D NBUFFX4_RVT 
data_in\[4\] I *L 0.000e+00 *S 3.933e-03 2.221e-02 *D NBUFFX4_RVT 
data_in\[3\] I *L 0.000e+00 *S 3.933e-03 2.221e-02 *D NBUFFX4_RVT 
data_in\[2\] I *L 0.000e+00 *S 3.933e-03 2.221e-02 *D NBUFFX4_RVT 
data_in\[1\] I *L 0.000e+00 *S 3.933e-03 2.221e-02 *D NBUFFX4_RVT 
data_in\[0\] I *L 0.000e+00 *S 3.933e-03 2.221e-02 *D NBUFFX4_RVT 
valid_in I *L 0.000e+00 *S 8.814e-03 1.393e-02 *D NBUFFX4_RVT 
hp\[949\] I *L 0.000e+00 *S 1.804e-03 4.224e-02 *D NBUFFX4_RVT 
hp\[948\] I *L 0.000e+00 *S 1.804e-03 4.224e-02 *D NBUFFX4_RVT 
hp\[947\] I *L 0.000e+00 *S 1.804e-03 4.224e-02 *D NBUFFX4_RVT 
hp\[946\] I *L 0.000e+00 *S 1.804e-03 4.224e-02 *D NBUFFX4_RVT 
hp\[945\] I *L 0.000e+00 *S 1.804e-03 4.224e-02 *D NBUFFX4_RVT 
hp\[944\] I *L 0.000e+00 *S 1.804e-03 4.224e-02 *D NBUFFX4_RVT 
hp\[943\] I *L 0.000e+00 *S 1.804e-03 4.224e-02 *D NBUFFX4_RVT 
hp\[942\] I *L 0.000e+00 *S 1.804e-03 4.224e-02 *D NBUFFX4_RVT 
hp\[941\] I *L 0.000e+00 *S 1.804e-03 4.224e-02 *D NBUFFX4_RVT 
hp\[940\] I *L 0.000e+00 *S 1.804e-03 4.224e-02 *D NBUFFX4_RVT 
hp\[939\] I *L 0.000e+00 *S 1.804e-03 4.224e-02 *D NBUFFX4_RVT 
hp\[938\] I *L 0.000e+00 *S 1.804e-03 4.224e-02 *D NBUFFX4_RVT 
hp\[937\] I *L 0.000e+00 *S 1.804e-03 4.224e-02 *D NBUFFX4_RVT 
hp\[936\] I *L 0.000e+00 *S 1.804e-03 4.224e-02 *D NBUFFX4_RVT 
hp\[935\] I *L 0.000e+00 *S 1.804e-03 4.224e-02 *D NBUFFX4_RVT 
hp\[934\] I *L 0.000e+00 *S 1.804e-03 4.224e-02 *D NBUFFX4_RVT 
hp\[933\] I *L 0.000e+00 *S 1.804e-03 4.224e-02 *D NBUFFX4_RVT 
hp\[932\] I *L 0.000e+00 *S 1.804e-03 4.224e-02 *D NBUFFX4_RVT 
hp\[931\] I *L 0.000e+00 *S 1.804e-03 4.224e-02 *D NBUFFX4_RVT 
hp\[930\] I *L 0.000e+00 *S 1.804e-03 4.224e-02 *D NBUFFX4_RVT 
hp\[929\] I *L 0.000e+00 *S 1.804e-03 4.224e-02 *D NBUFFX4_RVT 
hp\[928\] I *L 0.000e+00 *S 1.834e-03 4.193e-02 *D NBUFFX4_RVT 
hp\[927\] I *L 0.000e+00 *S 1.834e-03 4.193e-02 *D NBUFFX4_RVT 
hp\[926\] I *L 0.000e+00 *S 1.834e-03 4.193e-02 *D NBUFFX4_RVT 
hp\[925\] I *L 0.000e+00 *S 1.804e-03 4.224e-02 *D NBUFFX4_RVT 
hp\[924\] I *L 0.000e+00 *S 1.804e-03 4.224e-02 *D NBUFFX4_RVT 
hp\[923\] I *L 0.000e+00 *S 1.834e-03 4.193e-02 *D NBUFFX4_RVT 
hp\[922\] I *L 0.000e+00 *S 1.834e-03 4.193e-02 *D NBUFFX4_RVT 
hp\[921\] I *L 0.000e+00 *S 1.834e-03 4.193e-02 *D NBUFFX4_RVT 
hp\[920\] I *L 0.000e+00 *S 1.804e-03 4.224e-02 *D NBUFFX4_RVT 
hp\[919\] I *L 0.000e+00 *S 1.804e-03 4.224e-02 *D NBUFFX4_RVT 
hp\[918\] I *L 0.000e+00 *S 1.804e-03 4.224e-02 *D NBUFFX4_RVT 
hp\[917\] I *L 0.000e+00 *S 1.804e-03 4.224e-02 *D NBUFFX4_RVT 
hp\[916\] I *L 0.000e+00 *S 1.804e-03 4.224e-02 *D NBUFFX4_RVT 
hp\[915\] I *L 0.000e+00 *S 1.804e-03 4.224e-02 *D NBUFFX4_RVT 
hp\[914\] I *L 0.000e+00 *S 1.804e-03 4.224e-02 *D NBUFFX4_RVT 
hp\[913\] I *L 0.000e+00 *S 1.804e-03 4.224e-02 *D NBUFFX4_RVT 
hp\[912\] I *L 0.000e+00 *S 1.804e-03 4.224e-02 *D NBUFFX4_RVT 
hp\[911\] I *L 0.000e+00 *S 1.804e-03 4.224e-02 *D NBUFFX4_RVT 
hp\[910\] I *L 0.000e+00 *S 1.804e-03 4.224e-02 *D NBUFFX4_RVT 
hp\[909\] I *L 0.000e+00 *S 1.804e-03 4.224e-02 *D NBUFFX4_RVT 
hp\[908\] I *L 0.000e+00 *S 1.804e-03 4.224e-02 *D NBUFFX4_RVT 
hp\[907\] I *L 0.000e+00 *S 1.804e-03 4.224e-02 *D NBUFFX4_RVT 
hp\[906\] I *L 0.000e+00 *S 1.804e-03 4.224e-02 *D NBUFFX4_RVT 
hp\[905\] I *L 0.000e+00 *S 1.804e-03 4.224e-02 *D NBUFFX4_RVT 
hp\[904\] I *L 0.000e+00 *S 1.804e-03 4.224e-02 *D NBUFFX4_RVT 
hp\[903\] I *L 0.000e+00 *S 1.804e-03 4.224e-02 *D NBUFFX4_RVT 
hp\[902\] I *L 0.000e+00 *S 1.804e-03 4.224e-02 *D NBUFFX4_RVT 
hp\[901\] I *L 0.000e+00 *S 1.804e-03 4.224e-02 *D NBUFFX4_RVT 
hp\[900\] I *L 0.000e+00 *S 1.804e-03 4.224e-02 *D NBUFFX4_RVT 
hp\[899\] I *L 0.000e+00 *S 1.804e-03 4.224e-02 *D NBUFFX4_RVT 
hp\[898\] I *L 0.000e+00 *S 1.834e-03 4.193e-02 *D NBUFFX4_RVT 
hp\[897\] I *L 0.000e+00 *S 1.804e-03 4.224e-02 *D NBUFFX4_RVT 
hp\[896\] I *L 0.000e+00 *S 1.834e-03 4.193e-02 *D NBUFFX4_RVT 
hp\[895\] I *L 0.000e+00 *S 1.834e-03 4.193e-02 *D NBUFFX4_RVT 
hp\[894\] I *L 0.000e+00 *S 1.834e-03 4.193e-02 *D NBUFFX4_RVT 
hp\[893\] I *L 0.000e+00 *S 2.024e-03 3.996e-02 *D NBUFFX4_RVT 
hp\[892\] I *L 0.000e+00 *S 1.834e-03 4.193e-02 *D NBUFFX4_RVT 
hp\[891\] I *L 0.000e+00 *S 1.804e-03 4.224e-02 *D NBUFFX4_RVT 
hp\[890\] I *L 0.000e+00 *S 1.804e-03 4.224e-02 *D NBUFFX4_RVT 
hp\[889\] I *L 0.000e+00 *S 1.804e-03 4.224e-02 *D NBUFFX4_RVT 
hp\[888\] I *L 0.000e+00 *S 1.804e-03 4.224e-02 *D NBUFFX4_RVT 
hp\[887\] I *L 0.000e+00 *S 1.804e-03 4.224e-02 *D NBUFFX4_RVT 
hp\[886\] I *L 0.000e+00 *S 1.804e-03 4.224e-02 *D NBUFFX4_RVT 
hp\[885\] I *L 0.000e+00 *S 1.804e-03 4.224e-02 *D NBUFFX4_RVT 
hp\[884\] I *L 0.000e+00 *S 1.804e-03 4.224e-02 *D NBUFFX4_RVT 
hp\[883\] I *L 0.000e+00 *S 1.804e-03 4.224e-02 *D NBUFFX4_RVT 
hp\[882\] I *L 0.000e+00 *S 1.804e-03 4.224e-02 *D NBUFFX4_RVT 
hp\[881\] I *L 0.000e+00 *S 1.804e-03 4.224e-02 *D NBUFFX4_RVT 
hp\[880\] I *L 0.000e+00 *S 1.804e-03 4.224e-02 *D NBUFFX4_RVT 
hp\[879\] I *L 0.000e+00 *S 1.804e-03 4.224e-02 *D NBUFFX4_RVT 
hp\[878\] I *L 0.000e+00 *S 1.804e-03 4.224e-02 *D NBUFFX4_RVT 
hp\[877\] I *L 0.000e+00 *S 1.804e-03 4.224e-02 *D NBUFFX4_RVT 
hp\[876\] I *L 0.000e+00 *S 1.804e-03 4.224e-02 *D NBUFFX4_RVT 
hp\[875\] I *L 0.000e+00 *S 1.804e-03 4.224e-02 *D NBUFFX4_RVT 
hp\[874\] I *L 0.000e+00 *S 1.804e-03 4.224e-02 *D NBUFFX4_RVT 
hp\[873\] I *L 0.000e+00 *S 1.804e-03 4.224e-02 *D NBUFFX4_RVT 
hp\[872\] I *L 0.000e+00 *S 1.804e-03 4.224e-02 *D NBUFFX4_RVT 
hp\[871\] I *L 0.000e+00 *S 1.804e-03 4.224e-02 *D NBUFFX4_RVT 
hp\[870\] I *L 0.000e+00 *S 2.024e-03 3.996e-02 *D NBUFFX4_RVT 
hp\[869\] I *L 0.000e+00 *S 1.804e-03 4.224e-02 *D NBUFFX4_RVT 
hp\[868\] I *L 0.000e+00 *S 1.834e-03 4.193e-02 *D NBUFFX4_RVT 
hp\[867\] I *L 0.000e+00 *S 2.024e-03 3.996e-02 *D NBUFFX4_RVT 
hp\[866\] I *L 0.000e+00 *S 1.834e-03 4.193e-02 *D NBUFFX4_RVT 
hp\[865\] I *L 0.000e+00 *S 2.024e-03 3.996e-02 *D NBUFFX4_RVT 
hp\[864\] I *L 0.000e+00 *S 1.804e-03 4.224e-02 *D NBUFFX4_RVT 
hp\[863\] I *L 0.000e+00 *S 2.024e-03 3.996e-02 *D NBUFFX4_RVT 
hp\[862\] I *L 0.000e+00 *S 1.804e-03 4.224e-02 *D NBUFFX4_RVT 
hp\[861\] I *L 0.000e+00 *S 1.804e-03 4.224e-02 *D NBUFFX4_RVT 
hp\[860\] I *L 0.000e+00 *S 1.804e-03 4.224e-02 *D NBUFFX4_RVT 
hp\[859\] I *L 0.000e+00 *S 1.804e-03 4.224e-02 *D NBUFFX4_RVT 
hp\[858\] I *L 0.000e+00 *S 1.804e-03 4.224e-02 *D NBUFFX4_RVT 
hp\[857\] I *L 0.000e+00 *S 1.804e-03 4.224e-02 *D NBUFFX4_RVT 
hp\[856\] I *L 0.000e+00 *S 1.804e-03 4.224e-02 *D NBUFFX4_RVT 
hp\[855\] I *L 0.000e+00 *S 1.804e-03 4.224e-02 *D NBUFFX4_RVT 
hp\[854\] I *L 0.000e+00 *S 1.804e-03 4.224e-02 *D NBUFFX4_RVT 
hp\[853\] I *L 0.000e+00 *S 1.804e-03 4.224e-02 *D NBUFFX4_RVT 
hp\[852\] I *L 0.000e+00 *S 1.804e-03 4.224e-02 *D NBUFFX4_RVT 
hp\[851\] I *L 0.000e+00 *S 1.804e-03 4.224e-02 *D NBUFFX4_RVT 
hp\[850\] I *L 0.000e+00 *S 1.804e-03 4.224e-02 *D NBUFFX4_RVT 
hp\[849\] I *L 0.000e+00 *S 1.804e-03 4.224e-02 *D NBUFFX4_RVT 
hp\[848\] I *L 0.000e+00 *S 1.804e-03 4.224e-02 *D NBUFFX4_RVT 
hp\[847\] I *L 0.000e+00 *S 1.804e-03 4.224e-02 *D NBUFFX4_RVT 
hp\[846\] I *L 0.000e+00 *S 1.804e-03 4.224e-02 *D NBUFFX4_RVT 
hp\[845\] I *L 0.000e+00 *S 1.804e-03 4.224e-02 *D NBUFFX4_RVT 
hp\[844\] I *L 0.000e+00 *S 1.804e-03 4.224e-02 *D NBUFFX4_RVT 
hp\[843\] I *L 0.000e+00 *S 1.804e-03 4.224e-02 *D NBUFFX4_RVT 
hp\[842\] I *L 0.000e+00 *S 1.804e-03 4.224e-02 *D NBUFFX4_RVT 
hp\[841\] I *L 0.000e+00 *S 2.024e-03 3.996e-02 *D NBUFFX4_RVT 
hp\[840\] I *L 0.000e+00 *S 2.024e-03 3.996e-02 *D NBUFFX4_RVT 
hp\[839\] I *L 0.000e+00 *S 1.834e-03 4.193e-02 *D NBUFFX4_RVT 
hp\[838\] I *L 0.000e+00 *S 1.834e-03 4.193e-02 *D NBUFFX4_RVT 
hp\[837\] I *L 0.000e+00 *S 2.024e-03 3.996e-02 *D NBUFFX4_RVT 
hp\[836\] I *L 0.000e+00 *S 2.029e-03 3.991e-02 *D NBUFFX4_RVT 
hp\[835\] I *L 0.000e+00 *S 2.029e-03 3.991e-02 *D NBUFFX4_RVT 
hp\[834\] I *L 0.000e+00 *S 2.024e-03 3.996e-02 *D NBUFFX4_RVT 
hp\[833\] I *L 0.000e+00 *S 1.804e-03 4.224e-02 *D NBUFFX4_RVT 
hp\[832\] I *L 0.000e+00 *S 1.834e-03 4.193e-02 *D NBUFFX4_RVT 
hp\[831\] I *L 0.000e+00 *S 1.804e-03 4.224e-02 *D NBUFFX4_RVT 
hp\[830\] I *L 0.000e+00 *S 1.804e-03 4.224e-02 *D NBUFFX4_RVT 
hp\[829\] I *L 0.000e+00 *S 1.804e-03 4.224e-02 *D NBUFFX4_RVT 
hp\[828\] I *L 0.000e+00 *S 1.804e-03 4.224e-02 *D NBUFFX4_RVT 
hp\[827\] I *L 0.000e+00 *S 1.804e-03 4.224e-02 *D NBUFFX4_RVT 
hp\[826\] I *L 0.000e+00 *S 1.804e-03 4.224e-02 *D NBUFFX4_RVT 
hp\[825\] I *L 0.000e+00 *S 1.804e-03 4.224e-02 *D NBUFFX4_RVT 
hp\[824\] I *L 0.000e+00 *S 1.804e-03 4.224e-02 *D NBUFFX4_RVT 
hp\[823\] I *L 0.000e+00 *S 1.804e-03 4.224e-02 *D NBUFFX4_RVT 
hp\[822\] I *L 0.000e+00 *S 1.804e-03 4.224e-02 *D NBUFFX4_RVT 
hp\[821\] I *L 0.000e+00 *S 1.804e-03 4.224e-02 *D NBUFFX4_RVT 
hp\[820\] I *L 0.000e+00 *S 1.804e-03 4.224e-02 *D NBUFFX4_RVT 
hp\[819\] I *L 0.000e+00 *S 1.804e-03 4.224e-02 *D NBUFFX4_RVT 
hp\[818\] I *L 0.000e+00 *S 1.804e-03 4.224e-02 *D NBUFFX4_RVT 
hp\[817\] I *L 0.000e+00 *S 1.804e-03 4.224e-02 *D NBUFFX4_RVT 
hp\[816\] I *L 0.000e+00 *S 1.804e-03 4.224e-02 *D NBUFFX4_RVT 
hp\[815\] I *L 0.000e+00 *S 1.804e-03 4.224e-02 *D NBUFFX4_RVT 
hp\[814\] I *L 0.000e+00 *S 1.804e-03 4.224e-02 *D NBUFFX4_RVT 
hp\[813\] I *L 0.000e+00 *S 1.804e-03 4.224e-02 *D NBUFFX4_RVT 
hp\[812\] I *L 0.000e+00 *S 2.029e-03 3.991e-02 *D NBUFFX4_RVT 
hp\[811\] I *L 0.000e+00 *S 2.024e-03 3.996e-02 *D NBUFFX4_RVT 
hp\[810\] I *L 0.000e+00 *S 2.024e-03 3.996e-02 *D NBUFFX4_RVT 
hp\[809\] I *L 0.000e+00 *S 2.024e-03 3.996e-02 *D NBUFFX4_RVT 
hp\[808\] I *L 0.000e+00 *S 2.029e-03 3.991e-02 *D NBUFFX4_RVT 
hp\[807\] I *L 0.000e+00 *S 1.834e-03 4.193e-02 *D NBUFFX4_RVT 
hp\[806\] I *L 0.000e+00 *S 2.024e-03 3.996e-02 *D NBUFFX4_RVT 
hp\[805\] I *L 0.000e+00 *S 2.029e-03 3.991e-02 *D NBUFFX4_RVT 
hp\[804\] I *L 0.000e+00 *S 1.804e-03 4.224e-02 *D NBUFFX4_RVT 
hp\[803\] I *L 0.000e+00 *S 1.804e-03 4.224e-02 *D NBUFFX4_RVT 
hp\[802\] I *L 0.000e+00 *S 1.804e-03 4.224e-02 *D NBUFFX4_RVT 
hp\[801\] I *L 0.000e+00 *S 1.804e-03 4.224e-02 *D NBUFFX4_RVT 
hp\[800\] I *L 0.000e+00 *S 3.610e-03 2.508e-02 *D NBUFFX4_RVT 
hp\[799\] I *L 0.000e+00 *S 1.804e-03 4.224e-02 *D NBUFFX4_RVT 
hp\[798\] I *L 0.000e+00 *S 1.804e-03 4.224e-02 *D NBUFFX4_RVT 
hp\[797\] I *L 0.000e+00 *S 1.804e-03 4.224e-02 *D NBUFFX4_RVT 
hp\[796\] I *L 0.000e+00 *S 1.804e-03 4.224e-02 *D NBUFFX4_RVT 
hp\[795\] I *L 0.000e+00 *S 1.804e-03 4.224e-02 *D NBUFFX4_RVT 
hp\[794\] I *L 0.000e+00 *S 1.804e-03 4.224e-02 *D NBUFFX4_RVT 
hp\[793\] I *L 0.000e+00 *S 1.804e-03 4.224e-02 *D NBUFFX4_RVT 
hp\[792\] I *L 0.000e+00 *S 1.804e-03 4.224e-02 *D NBUFFX4_RVT 
hp\[791\] I *L 0.000e+00 *S 1.804e-03 4.224e-02 *D NBUFFX4_RVT 
hp\[790\] I *L 0.000e+00 *S 1.804e-03 4.224e-02 *D NBUFFX4_RVT 
hp\[789\] I *L 0.000e+00 *S 1.804e-03 4.224e-02 *D NBUFFX4_RVT 
hp\[788\] I *L 0.000e+00 *S 1.804e-03 4.224e-02 *D NBUFFX4_RVT 
hp\[787\] I *L 0.000e+00 *S 1.804e-03 4.224e-02 *D NBUFFX4_RVT 
hp\[786\] I *L 0.000e+00 *S 1.804e-03 4.224e-02 *D NBUFFX4_RVT 
hp\[785\] I *L 0.000e+00 *S 1.804e-03 4.224e-02 *D NBUFFX4_RVT 
hp\[784\] I *L 0.000e+00 *S 1.804e-03 4.224e-02 *D NBUFFX4_RVT 
hp\[783\] I *L 0.000e+00 *S 2.024e-03 3.996e-02 *D NBUFFX4_RVT 
hp\[782\] I *L 0.000e+00 *S 2.029e-03 3.991e-02 *D NBUFFX4_RVT 
hp\[781\] I *L 0.000e+00 *S 2.024e-03 3.996e-02 *D NBUFFX4_RVT 
hp\[780\] I *L 0.000e+00 *S 2.024e-03 3.996e-02 *D NBUFFX4_RVT 
hp\[779\] I *L 0.000e+00 *S 2.024e-03 3.996e-02 *D NBUFFX4_RVT 
hp\[778\] I *L 0.000e+00 *S 2.024e-03 3.996e-02 *D NBUFFX4_RVT 
hp\[777\] I *L 0.000e+00 *S 2.024e-03 3.996e-02 *D NBUFFX4_RVT 
hp\[776\] I *L 0.000e+00 *S 2.024e-03 3.996e-02 *D NBUFFX4_RVT 
hp\[775\] I *L 0.000e+00 *S 1.804e-03 4.224e-02 *D NBUFFX4_RVT 
hp\[774\] I *L 0.000e+00 *S 1.804e-03 4.224e-02 *D NBUFFX4_RVT 
hp\[773\] I *L 0.000e+00 *S 1.804e-03 4.224e-02 *D NBUFFX4_RVT 
hp\[772\] I *L 0.000e+00 *S 1.804e-03 4.224e-02 *D NBUFFX4_RVT 
hp\[771\] I *L 0.000e+00 *S 1.804e-03 4.224e-02 *D NBUFFX4_RVT 
hp\[770\] I *L 0.000e+00 *S 1.804e-03 4.224e-02 *D NBUFFX4_RVT 
hp\[769\] I *L 0.000e+00 *S 1.804e-03 4.224e-02 *D NBUFFX4_RVT 
hp\[768\] I *L 0.000e+00 *S 1.804e-03 4.224e-02 *D NBUFFX4_RVT 
hp\[767\] I *L 0.000e+00 *S 1.804e-03 4.224e-02 *D NBUFFX4_RVT 
hp\[766\] I *L 0.000e+00 *S 1.804e-03 4.224e-02 *D NBUFFX4_RVT 
hp\[765\] I *L 0.000e+00 *S 1.804e-03 4.224e-02 *D NBUFFX4_RVT 
hp\[764\] I *L 0.000e+00 *S 1.804e-03 4.224e-02 *D NBUFFX4_RVT 
hp\[763\] I *L 0.000e+00 *S 1.804e-03 4.224e-02 *D NBUFFX4_RVT 
hp\[762\] I *L 0.000e+00 *S 1.804e-03 4.224e-02 *D NBUFFX4_RVT 
hp\[761\] I *L 0.000e+00 *S 1.804e-03 4.224e-02 *D NBUFFX4_RVT 
hp\[760\] I *L 0.000e+00 *S 1.804e-03 4.224e-02 *D NBUFFX4_RVT 
hp\[759\] I *L 0.000e+00 *S 1.804e-03 4.224e-02 *D NBUFFX4_RVT 
hp\[758\] I *L 0.000e+00 *S 1.804e-03 4.224e-02 *D NBUFFX4_RVT 
hp\[757\] I *L 0.000e+00 *S 1.804e-03 4.224e-02 *D NBUFFX4_RVT 
hp\[756\] I *L 0.000e+00 *S 1.804e-03 4.224e-02 *D NBUFFX4_RVT 
hp\[755\] I *L 0.000e+00 *S 1.804e-03 4.224e-02 *D NBUFFX4_RVT 
hp\[754\] I *L 0.000e+00 *S 1.834e-03 4.193e-02 *D NBUFFX4_RVT 
hp\[753\] I *L 0.000e+00 *S 2.024e-03 3.996e-02 *D NBUFFX4_RVT 
hp\[752\] I *L 0.000e+00 *S 2.024e-03 3.996e-02 *D NBUFFX4_RVT 
hp\[751\] I *L 0.000e+00 *S 2.029e-03 3.991e-02 *D NBUFFX4_RVT 
hp\[750\] I *L 0.000e+00 *S 1.834e-03 4.193e-02 *D NBUFFX4_RVT 
hp\[749\] I *L 0.000e+00 *S 1.804e-03 4.224e-02 *D NBUFFX4_RVT 
hp\[748\] I *L 0.000e+00 *S 1.834e-03 4.193e-02 *D NBUFFX4_RVT 
hp\[747\] I *L 0.000e+00 *S 1.834e-03 4.193e-02 *D NBUFFX4_RVT 
hp\[746\] I *L 0.000e+00 *S 1.804e-03 4.224e-02 *D NBUFFX4_RVT 
hp\[745\] I *L 0.000e+00 *S 1.804e-03 4.224e-02 *D NBUFFX4_RVT 
hp\[744\] I *L 0.000e+00 *S 1.804e-03 4.224e-02 *D NBUFFX4_RVT 
hp\[743\] I *L 0.000e+00 *S 1.804e-03 4.224e-02 *D NBUFFX4_RVT 
hp\[742\] I *L 0.000e+00 *S 1.804e-03 4.224e-02 *D NBUFFX4_RVT 
hp\[741\] I *L 0.000e+00 *S 1.804e-03 4.224e-02 *D NBUFFX4_RVT 
hp\[740\] I *L 0.000e+00 *S 1.804e-03 4.224e-02 *D NBUFFX4_RVT 
hp\[739\] I *L 0.000e+00 *S 1.804e-03 4.224e-02 *D NBUFFX4_RVT 
hp\[738\] I *L 0.000e+00 *S 1.804e-03 4.224e-02 *D NBUFFX4_RVT 
hp\[737\] I *L 0.000e+00 *S 1.804e-03 4.224e-02 *D NBUFFX4_RVT 
hp\[736\] I *L 0.000e+00 *S 1.804e-03 4.224e-02 *D NBUFFX4_RVT 
hp\[735\] I *L 0.000e+00 *S 1.804e-03 4.224e-02 *D NBUFFX4_RVT 
hp\[734\] I *L 0.000e+00 *S 1.804e-03 4.224e-02 *D NBUFFX4_RVT 
hp\[733\] I *L 0.000e+00 *S 1.804e-03 4.224e-02 *D NBUFFX4_RVT 
hp\[732\] I *L 0.000e+00 *S 1.804e-03 4.224e-02 *D NBUFFX4_RVT 
hp\[731\] I *L 0.000e+00 *S 1.804e-03 4.224e-02 *D NBUFFX4_RVT 
hp\[730\] I *L 0.000e+00 *S 1.804e-03 4.224e-02 *D NBUFFX4_RVT 
hp\[729\] I *L 0.000e+00 *S 1.804e-03 4.224e-02 *D NBUFFX4_RVT 
hp\[728\] I *L 0.000e+00 *S 1.804e-03 4.224e-02 *D NBUFFX4_RVT 
hp\[727\] I *L 0.000e+00 *S 1.804e-03 4.224e-02 *D NBUFFX4_RVT 
hp\[726\] I *L 0.000e+00 *S 1.804e-03 4.224e-02 *D NBUFFX4_RVT 
hp\[725\] I *L 0.000e+00 *S 1.834e-03 4.193e-02 *D NBUFFX4_RVT 
hp\[724\] I *L 0.000e+00 *S 1.834e-03 4.193e-02 *D NBUFFX4_RVT 
hp\[723\] I *L 0.000e+00 *S 2.029e-03 3.991e-02 *D NBUFFX4_RVT 
hp\[722\] I *L 0.000e+00 *S 1.834e-03 4.193e-02 *D NBUFFX4_RVT 
hp\[721\] I *L 0.000e+00 *S 2.024e-03 3.996e-02 *D NBUFFX4_RVT 
hp\[720\] I *L 0.000e+00 *S 2.024e-03 3.996e-02 *D NBUFFX4_RVT 
hp\[719\] I *L 0.000e+00 *S 1.834e-03 4.193e-02 *D NBUFFX4_RVT 
hp\[718\] I *L 0.000e+00 *S 1.804e-03 4.224e-02 *D NBUFFX4_RVT 
hp\[717\] I *L 0.000e+00 *S 1.804e-03 4.224e-02 *D NBUFFX4_RVT 
hp\[716\] I *L 0.000e+00 *S 1.804e-03 4.224e-02 *D NBUFFX4_RVT 
hp\[715\] I *L 0.000e+00 *S 1.804e-03 4.224e-02 *D NBUFFX4_RVT 
hp\[714\] I *L 0.000e+00 *S 1.804e-03 4.224e-02 *D NBUFFX4_RVT 
hp\[713\] I *L 0.000e+00 *S 1.804e-03 4.224e-02 *D NBUFFX4_RVT 
hp\[712\] I *L 0.000e+00 *S 1.804e-03 4.224e-02 *D NBUFFX4_RVT 
hp\[711\] I *L 0.000e+00 *S 1.834e-03 4.193e-02 *D NBUFFX4_RVT 
hp\[710\] I *L 0.000e+00 *S 1.804e-03 4.224e-02 *D NBUFFX4_RVT 
hp\[709\] I *L 0.000e+00 *S 1.804e-03 4.224e-02 *D NBUFFX4_RVT 
hp\[708\] I *L 0.000e+00 *S 1.804e-03 4.224e-02 *D NBUFFX4_RVT 
hp\[707\] I *L 0.000e+00 *S 1.804e-03 4.224e-02 *D NBUFFX4_RVT 
hp\[706\] I *L 0.000e+00 *S 1.804e-03 4.224e-02 *D NBUFFX4_RVT 
hp\[705\] I *L 0.000e+00 *S 1.804e-03 4.224e-02 *D NBUFFX4_RVT 
hp\[704\] I *L 0.000e+00 *S 1.804e-03 4.224e-02 *D NBUFFX4_RVT 
hp\[703\] I *L 0.000e+00 *S 1.804e-03 4.224e-02 *D NBUFFX4_RVT 
hp\[702\] I *L 0.000e+00 *S 1.804e-03 4.224e-02 *D NBUFFX4_RVT 
hp\[701\] I *L 0.000e+00 *S 1.804e-03 4.224e-02 *D NBUFFX4_RVT 
hp\[700\] I *L 0.000e+00 *S 1.804e-03 4.224e-02 *D NBUFFX4_RVT 
hp\[699\] I *L 0.000e+00 *S 1.804e-03 4.224e-02 *D NBUFFX4_RVT 
hp\[698\] I *L 0.000e+00 *S 1.804e-03 4.224e-02 *D NBUFFX4_RVT 
hp\[697\] I *L 0.000e+00 *S 1.804e-03 4.224e-02 *D NBUFFX4_RVT 
hp\[696\] I *L 0.000e+00 *S 1.804e-03 4.224e-02 *D NBUFFX4_RVT 
hp\[695\] I *L 0.000e+00 *S 1.804e-03 4.224e-02 *D NBUFFX4_RVT 
hp\[694\] I *L 0.000e+00 *S 1.804e-03 4.224e-02 *D NBUFFX4_RVT 
hp\[693\] I *L 0.000e+00 *S 1.804e-03 4.224e-02 *D NBUFFX4_RVT 
hp\[692\] I *L 0.000e+00 *S 2.024e-03 3.996e-02 *D NBUFFX4_RVT 
hp\[691\] I *L 0.000e+00 *S 2.024e-03 3.996e-02 *D NBUFFX4_RVT 
hp\[690\] I *L 0.000e+00 *S 2.024e-03 3.996e-02 *D NBUFFX4_RVT 
hp\[689\] I *L 0.000e+00 *S 2.024e-03 3.996e-02 *D NBUFFX4_RVT 
hp\[688\] I *L 0.000e+00 *S 2.029e-03 3.991e-02 *D NBUFFX4_RVT 
hp\[687\] I *L 0.000e+00 *S 2.029e-03 3.991e-02 *D NBUFFX4_RVT 
hp\[686\] I *L 0.000e+00 *S 2.024e-03 3.996e-02 *D NBUFFX4_RVT 
hp\[685\] I *L 0.000e+00 *S 2.024e-03 3.996e-02 *D NBUFFX4_RVT 
hp\[684\] I *L 0.000e+00 *S 1.804e-03 4.224e-02 *D NBUFFX4_RVT 
hp\[683\] I *L 0.000e+00 *S 1.804e-03 4.224e-02 *D NBUFFX4_RVT 
hp\[682\] I *L 0.000e+00 *S 1.804e-03 4.224e-02 *D NBUFFX4_RVT 
hp\[681\] I *L 0.000e+00 *S 1.804e-03 4.224e-02 *D NBUFFX4_RVT 
hp\[680\] I *L 0.000e+00 *S 1.804e-03 4.224e-02 *D NBUFFX4_RVT 
hp\[679\] I *L 0.000e+00 *S 1.804e-03 4.224e-02 *D NBUFFX4_RVT 
hp\[678\] I *L 0.000e+00 *S 1.804e-03 4.224e-02 *D NBUFFX4_RVT 
hp\[677\] I *L 0.000e+00 *S 1.804e-03 4.224e-02 *D NBUFFX4_RVT 
hp\[676\] I *L 0.000e+00 *S 1.804e-03 4.224e-02 *D NBUFFX4_RVT 
hp\[675\] I *L 0.000e+00 *S 1.804e-03 4.224e-02 *D NBUFFX4_RVT 
hp\[674\] I *L 0.000e+00 *S 1.804e-03 4.224e-02 *D NBUFFX4_RVT 
hp\[673\] I *L 0.000e+00 *S 1.804e-03 4.224e-02 *D NBUFFX4_RVT 
hp\[672\] I *L 0.000e+00 *S 1.804e-03 4.224e-02 *D NBUFFX4_RVT 
hp\[671\] I *L 0.000e+00 *S 1.804e-03 4.224e-02 *D NBUFFX4_RVT 
hp\[670\] I *L 0.000e+00 *S 1.804e-03 4.224e-02 *D NBUFFX4_RVT 
hp\[669\] I *L 0.000e+00 *S 1.804e-03 4.224e-02 *D NBUFFX4_RVT 
hp\[668\] I *L 0.000e+00 *S 1.804e-03 4.224e-02 *D NBUFFX4_RVT 
hp\[667\] I *L 0.000e+00 *S 1.804e-03 4.224e-02 *D NBUFFX4_RVT 
hp\[666\] I *L 0.000e+00 *S 1.804e-03 4.224e-02 *D NBUFFX4_RVT 
hp\[665\] I *L 0.000e+00 *S 1.804e-03 4.224e-02 *D NBUFFX4_RVT 
hp\[664\] I *L 0.000e+00 *S 1.804e-03 4.224e-02 *D NBUFFX4_RVT 
hp\[663\] I *L 0.000e+00 *S 1.834e-03 4.193e-02 *D NBUFFX4_RVT 
hp\[662\] I *L 0.000e+00 *S 2.029e-03 3.991e-02 *D NBUFFX4_RVT 
hp\[661\] I *L 0.000e+00 *S 2.024e-03 3.996e-02 *D NBUFFX4_RVT 
hp\[660\] I *L 0.000e+00 *S 1.834e-03 4.193e-02 *D NBUFFX4_RVT 
hp\[659\] I *L 0.000e+00 *S 2.024e-03 3.996e-02 *D NBUFFX4_RVT 
hp\[658\] I *L 0.000e+00 *S 2.024e-03 3.996e-02 *D NBUFFX4_RVT 
hp\[657\] I *L 0.000e+00 *S 1.834e-03 4.193e-02 *D NBUFFX4_RVT 
hp\[656\] I *L 0.000e+00 *S 1.834e-03 4.193e-02 *D NBUFFX4_RVT 
hp\[655\] I *L 0.000e+00 *S 1.804e-03 4.224e-02 *D NBUFFX4_RVT 
hp\[654\] I *L 0.000e+00 *S 1.804e-03 4.224e-02 *D NBUFFX4_RVT 
hp\[653\] I *L 0.000e+00 *S 1.804e-03 4.224e-02 *D NBUFFX4_RVT 
hp\[652\] I *L 0.000e+00 *S 1.804e-03 4.224e-02 *D NBUFFX4_RVT 
hp\[651\] I *L 0.000e+00 *S 1.804e-03 4.224e-02 *D NBUFFX4_RVT 
hp\[650\] I *L 0.000e+00 *S 1.804e-03 4.224e-02 *D NBUFFX4_RVT 
hp\[649\] I *L 0.000e+00 *S 1.804e-03 4.224e-02 *D NBUFFX4_RVT 
hp\[648\] I *L 0.000e+00 *S 1.804e-03 4.224e-02 *D NBUFFX4_RVT 
hp\[647\] I *L 0.000e+00 *S 1.804e-03 4.224e-02 *D NBUFFX4_RVT 
hp\[646\] I *L 0.000e+00 *S 1.804e-03 4.224e-02 *D NBUFFX4_RVT 
hp\[645\] I *L 0.000e+00 *S 1.804e-03 4.224e-02 *D NBUFFX4_RVT 
hp\[644\] I *L 0.000e+00 *S 1.804e-03 4.224e-02 *D NBUFFX4_RVT 
hp\[643\] I *L 0.000e+00 *S 1.804e-03 4.224e-02 *D NBUFFX4_RVT 
hp\[642\] I *L 0.000e+00 *S 1.804e-03 4.224e-02 *D NBUFFX4_RVT 
hp\[641\] I *L 0.000e+00 *S 1.804e-03 4.224e-02 *D NBUFFX4_RVT 
hp\[640\] I *L 0.000e+00 *S 1.804e-03 4.224e-02 *D NBUFFX4_RVT 
hp\[639\] I *L 0.000e+00 *S 1.804e-03 4.224e-02 *D NBUFFX4_RVT 
hp\[638\] I *L 0.000e+00 *S 1.804e-03 4.224e-02 *D NBUFFX4_RVT 
hp\[637\] I *L 0.000e+00 *S 1.804e-03 4.224e-02 *D NBUFFX4_RVT 
hp\[636\] I *L 0.000e+00 *S 1.804e-03 4.224e-02 *D NBUFFX4_RVT 
hp\[635\] I *L 0.000e+00 *S 1.804e-03 4.224e-02 *D NBUFFX4_RVT 
hp\[634\] I *L 0.000e+00 *S 2.029e-03 3.991e-02 *D NBUFFX4_RVT 
hp\[633\] I *L 0.000e+00 *S 1.834e-03 4.193e-02 *D NBUFFX4_RVT 
hp\[632\] I *L 0.000e+00 *S 2.029e-03 3.991e-02 *D NBUFFX4_RVT 
hp\[631\] I *L 0.000e+00 *S 1.834e-03 4.193e-02 *D NBUFFX4_RVT 
hp\[630\] I *L 0.000e+00 *S 1.834e-03 4.193e-02 *D NBUFFX4_RVT 
hp\[629\] I *L 0.000e+00 *S 1.834e-03 4.193e-02 *D NBUFFX4_RVT 
hp\[628\] I *L 0.000e+00 *S 2.024e-03 3.996e-02 *D NBUFFX4_RVT 
hp\[627\] I *L 0.000e+00 *S 1.804e-03 4.224e-02 *D NBUFFX4_RVT 
hp\[626\] I *L 0.000e+00 *S 1.804e-03 4.224e-02 *D NBUFFX4_RVT 
hp\[625\] I *L 0.000e+00 *S 1.804e-03 4.224e-02 *D NBUFFX4_RVT 
hp\[624\] I *L 0.000e+00 *S 1.804e-03 4.224e-02 *D NBUFFX4_RVT 
hp\[623\] I *L 0.000e+00 *S 1.804e-03 4.224e-02 *D NBUFFX4_RVT 
hp\[622\] I *L 0.000e+00 *S 1.804e-03 4.224e-02 *D NBUFFX4_RVT 
hp\[621\] I *L 0.000e+00 *S 1.804e-03 4.224e-02 *D NBUFFX4_RVT 
hp\[620\] I *L 0.000e+00 *S 1.804e-03 4.224e-02 *D NBUFFX4_RVT 
hp\[619\] I *L 0.000e+00 *S 1.804e-03 4.224e-02 *D NBUFFX4_RVT 
hp\[618\] I *L 0.000e+00 *S 1.804e-03 4.224e-02 *D NBUFFX4_RVT 
hp\[617\] I *L 0.000e+00 *S 1.804e-03 4.224e-02 *D NBUFFX4_RVT 
hp\[616\] I *L 0.000e+00 *S 1.804e-03 4.224e-02 *D NBUFFX4_RVT 
hp\[615\] I *L 0.000e+00 *S 1.804e-03 4.224e-02 *D NBUFFX4_RVT 
hp\[614\] I *L 0.000e+00 *S 1.804e-03 4.224e-02 *D NBUFFX4_RVT 
hp\[613\] I *L 0.000e+00 *S 1.804e-03 4.224e-02 *D NBUFFX4_RVT 
hp\[612\] I *L 0.000e+00 *S 1.804e-03 4.224e-02 *D NBUFFX4_RVT 
hp\[611\] I *L 0.000e+00 *S 1.804e-03 4.224e-02 *D NBUFFX4_RVT 
hp\[610\] I *L 0.000e+00 *S 1.804e-03 4.224e-02 *D NBUFFX4_RVT 
hp\[609\] I *L 0.000e+00 *S 1.804e-03 4.224e-02 *D NBUFFX4_RVT 
hp\[608\] I *L 0.000e+00 *S 1.804e-03 4.224e-02 *D NBUFFX4_RVT 
hp\[607\] I *L 0.000e+00 *S 1.804e-03 4.224e-02 *D NBUFFX4_RVT 
hp\[606\] I *L 0.000e+00 *S 1.804e-03 4.224e-02 *D NBUFFX4_RVT 
hp\[605\] I *L 0.000e+00 *S 1.804e-03 4.224e-02 *D NBUFFX4_RVT 
hp\[604\] I *L 0.000e+00 *S 1.834e-03 4.193e-02 *D NBUFFX4_RVT 
hp\[603\] I *L 0.000e+00 *S 1.834e-03 4.193e-02 *D NBUFFX4_RVT 
hp\[602\] I *L 0.000e+00 *S 2.029e-03 3.991e-02 *D NBUFFX4_RVT 
hp\[601\] I *L 0.000e+00 *S 1.834e-03 4.193e-02 *D NBUFFX4_RVT 
hp\[600\] I *L 0.000e+00 *S 1.834e-03 4.193e-02 *D NBUFFX4_RVT 
hp\[599\] I *L 0.000e+00 *S 2.024e-03 3.996e-02 *D NBUFFX4_RVT 
hp\[598\] I *L 0.000e+00 *S 1.834e-03 4.193e-02 *D NBUFFX4_RVT 
hp\[597\] I *L 0.000e+00 *S 1.804e-03 4.224e-02 *D NBUFFX4_RVT 
hp\[596\] I *L 0.000e+00 *S 1.804e-03 4.224e-02 *D NBUFFX4_RVT 
hp\[595\] I *L 0.000e+00 *S 1.804e-03 4.224e-02 *D NBUFFX4_RVT 
hp\[594\] I *L 0.000e+00 *S 1.804e-03 4.224e-02 *D NBUFFX4_RVT 
hp\[593\] I *L 0.000e+00 *S 1.804e-03 4.224e-02 *D NBUFFX4_RVT 
hp\[592\] I *L 0.000e+00 *S 1.804e-03 4.224e-02 *D NBUFFX4_RVT 
hp\[591\] I *L 0.000e+00 *S 1.804e-03 4.224e-02 *D NBUFFX4_RVT 
hp\[590\] I *L 0.000e+00 *S 1.804e-03 4.224e-02 *D NBUFFX4_RVT 
hp\[589\] I *L 0.000e+00 *S 1.804e-03 4.224e-02 *D NBUFFX4_RVT 
hp\[588\] I *L 0.000e+00 *S 1.804e-03 4.224e-02 *D NBUFFX4_RVT 
hp\[587\] I *L 0.000e+00 *S 1.804e-03 4.224e-02 *D NBUFFX4_RVT 
hp\[586\] I *L 0.000e+00 *S 1.804e-03 4.224e-02 *D NBUFFX4_RVT 
hp\[585\] I *L 0.000e+00 *S 1.804e-03 4.224e-02 *D NBUFFX4_RVT 
hp\[584\] I *L 0.000e+00 *S 1.804e-03 4.224e-02 *D NBUFFX4_RVT 
hp\[583\] I *L 0.000e+00 *S 1.804e-03 4.224e-02 *D NBUFFX4_RVT 
hp\[582\] I *L 0.000e+00 *S 1.804e-03 4.224e-02 *D NBUFFX4_RVT 
hp\[581\] I *L 0.000e+00 *S 1.804e-03 4.224e-02 *D NBUFFX4_RVT 
hp\[580\] I *L 0.000e+00 *S 1.804e-03 4.224e-02 *D NBUFFX4_RVT 
hp\[579\] I *L 0.000e+00 *S 1.804e-03 4.224e-02 *D NBUFFX4_RVT 
hp\[578\] I *L 0.000e+00 *S 1.804e-03 4.224e-02 *D NBUFFX4_RVT 
hp\[577\] I *L 0.000e+00 *S 1.804e-03 4.224e-02 *D NBUFFX4_RVT 
hp\[576\] I *L 0.000e+00 *S 2.024e-03 3.996e-02 *D NBUFFX4_RVT 
hp\[575\] I *L 0.000e+00 *S 1.834e-03 4.193e-02 *D NBUFFX4_RVT 
hp\[574\] I *L 0.000e+00 *S 1.804e-03 4.224e-02 *D NBUFFX4_RVT 
hp\[573\] I *L 0.000e+00 *S 2.024e-03 3.996e-02 *D NBUFFX4_RVT 
hp\[572\] I *L 0.000e+00 *S 2.024e-03 3.996e-02 *D NBUFFX4_RVT 
hp\[571\] I *L 0.000e+00 *S 1.804e-03 4.224e-02 *D NBUFFX4_RVT 
hp\[570\] I *L 0.000e+00 *S 1.804e-03 4.224e-02 *D NBUFFX4_RVT 
hp\[569\] I *L 0.000e+00 *S 2.024e-03 3.996e-02 *D NBUFFX4_RVT 
hp\[568\] I *L 0.000e+00 *S 1.804e-03 4.224e-02 *D NBUFFX4_RVT 
hp\[567\] I *L 0.000e+00 *S 1.804e-03 4.224e-02 *D NBUFFX4_RVT 
hp\[566\] I *L 0.000e+00 *S 1.804e-03 4.224e-02 *D NBUFFX4_RVT 
hp\[565\] I *L 0.000e+00 *S 1.804e-03 4.224e-02 *D NBUFFX4_RVT 
hp\[564\] I *L 0.000e+00 *S 1.804e-03 4.224e-02 *D NBUFFX4_RVT 
hp\[563\] I *L 0.000e+00 *S 1.804e-03 4.224e-02 *D NBUFFX4_RVT 
hp\[562\] I *L 0.000e+00 *S 1.804e-03 4.224e-02 *D NBUFFX4_RVT 
hp\[561\] I *L 0.000e+00 *S 1.804e-03 4.224e-02 *D NBUFFX4_RVT 
hp\[560\] I *L 0.000e+00 *S 1.804e-03 4.224e-02 *D NBUFFX4_RVT 
hp\[559\] I *L 0.000e+00 *S 1.804e-03 4.224e-02 *D NBUFFX4_RVT 
hp\[558\] I *L 0.000e+00 *S 1.804e-03 4.224e-02 *D NBUFFX4_RVT 
hp\[557\] I *L 0.000e+00 *S 1.804e-03 4.224e-02 *D NBUFFX4_RVT 
hp\[556\] I *L 0.000e+00 *S 1.804e-03 4.224e-02 *D NBUFFX4_RVT 
hp\[555\] I *L 0.000e+00 *S 1.804e-03 4.224e-02 *D NBUFFX4_RVT 
hp\[554\] I *L 0.000e+00 *S 1.804e-03 4.224e-02 *D NBUFFX4_RVT 
hp\[553\] I *L 0.000e+00 *S 1.804e-03 4.224e-02 *D NBUFFX4_RVT 
hp\[552\] I *L 0.000e+00 *S 1.804e-03 4.224e-02 *D NBUFFX4_RVT 
hp\[551\] I *L 0.000e+00 *S 1.804e-03 4.224e-02 *D NBUFFX4_RVT 
hp\[550\] I *L 0.000e+00 *S 1.804e-03 4.224e-02 *D NBUFFX4_RVT 
hp\[549\] I *L 0.000e+00 *S 1.804e-03 4.224e-02 *D NBUFFX4_RVT 
hp\[548\] I *L 0.000e+00 *S 1.804e-03 4.224e-02 *D NBUFFX4_RVT 
hp\[547\] I *L 0.000e+00 *S 1.834e-03 4.193e-02 *D NBUFFX4_RVT 
hp\[546\] I *L 0.000e+00 *S 1.804e-03 4.224e-02 *D NBUFFX4_RVT 
hp\[545\] I *L 0.000e+00 *S 1.834e-03 4.193e-02 *D NBUFFX4_RVT 
hp\[544\] I *L 0.000e+00 *S 1.804e-03 4.224e-02 *D NBUFFX4_RVT 
hp\[543\] I *L 0.000e+00 *S 1.834e-03 4.193e-02 *D NBUFFX4_RVT 
hp\[542\] I *L 0.000e+00 *S 1.834e-03 4.193e-02 *D NBUFFX4_RVT 
hp\[541\] I *L 0.000e+00 *S 1.834e-03 4.193e-02 *D NBUFFX4_RVT 
hp\[540\] I *L 0.000e+00 *S 1.834e-03 4.193e-02 *D NBUFFX4_RVT 
hp\[539\] I *L 0.000e+00 *S 1.804e-03 4.224e-02 *D NBUFFX4_RVT 
hp\[538\] I *L 0.000e+00 *S 1.804e-03 4.224e-02 *D NBUFFX4_RVT 
hp\[537\] I *L 0.000e+00 *S 1.804e-03 4.224e-02 *D NBUFFX4_RVT 
hp\[536\] I *L 0.000e+00 *S 1.834e-03 4.193e-02 *D NBUFFX4_RVT 
hp\[535\] I *L 0.000e+00 *S 1.804e-03 4.224e-02 *D NBUFFX4_RVT 
hp\[534\] I *L 0.000e+00 *S 1.804e-03 4.224e-02 *D NBUFFX4_RVT 
hp\[533\] I *L 0.000e+00 *S 1.804e-03 4.224e-02 *D NBUFFX4_RVT 
hp\[532\] I *L 0.000e+00 *S 1.804e-03 4.224e-02 *D NBUFFX4_RVT 
hp\[531\] I *L 0.000e+00 *S 1.804e-03 4.224e-02 *D NBUFFX4_RVT 
hp\[530\] I *L 0.000e+00 *S 1.804e-03 4.224e-02 *D NBUFFX4_RVT 
hp\[529\] I *L 0.000e+00 *S 1.804e-03 4.224e-02 *D NBUFFX4_RVT 
hp\[528\] I *L 0.000e+00 *S 1.804e-03 4.224e-02 *D NBUFFX4_RVT 
hp\[527\] I *L 0.000e+00 *S 1.804e-03 4.224e-02 *D NBUFFX4_RVT 
hp\[526\] I *L 0.000e+00 *S 1.804e-03 4.224e-02 *D NBUFFX4_RVT 
hp\[525\] I *L 0.000e+00 *S 1.804e-03 4.224e-02 *D NBUFFX4_RVT 
hp\[524\] I *L 0.000e+00 *S 1.804e-03 4.224e-02 *D NBUFFX4_RVT 
hp\[523\] I *L 0.000e+00 *S 1.804e-03 4.224e-02 *D NBUFFX4_RVT 